
  ACD/Labs08291009533D

 32 34  0  0  0  0  0  0  0  0  1 V2000
   13.4705  -17.9170   -0.6469 C   0  0  0  0  0  0  0  0  0  0  0  0
   13.8238  -19.2060   -0.2720 C   0  0  0  0  0  0  0  0  0  0  0  0
   12.1488  -17.6311   -0.9610 C   0  0  0  0  0  0  0  0  0  0  0  0
   12.8677  -20.2048   -0.2062 C   0  0  0  0  0  0  0  0  0  0  0  0
   11.1896  -18.6313   -0.8972 C   0  0  0  0  0  0  0  0  0  0  0  0
   11.5481  -19.9163   -0.5201 C   0  0  0  0  0  0  0  0  0  0  0  0
   15.6286  -17.0747    0.0776 C   0  0  0  0  0  0  0  0  0  0  0  0
   16.2680  -18.4327   -0.2495 C   0  0  0  0  0  0  0  0  0  0  0  0
   14.4367  -16.9451   -0.7048 O   0  0  0  0  0  0  0  0  0  0  0  0
   15.2297  -19.4810    0.0607 C   0  0  0  0  0  0  0  0  0  0  0  0
   16.6086  -15.9423   -0.1952 C   0  0  0  0  0  0  0  0  0  0  0  0
   16.1656  -14.7252   -0.6906 C   0  0  0  0  0  0  0  0  0  0  0  0
   17.9586  -16.1237    0.0705 C   0  0  0  0  0  0  0  0  0  0  0  0
   17.0711  -13.6978   -0.9181 C   0  0  0  0  0  0  0  0  0  0  0  0
   18.8627  -15.0981   -0.1554 C   0  0  0  0  0  0  0  0  0  0  0  0
   18.4187  -13.8834   -0.6498 C   0  0  0  0  0  0  0  0  0  0  0  0
    9.8924  -18.3529   -1.2030 O   0  0  0  0  0  0  0  0  0  0  0  0
   13.2194  -21.4638    0.1674 O   0  0  0  0  0  0  0  0  0  0  0  0
   15.5474  -20.5157    0.6037 O   0  0  0  0  0  0  0  0  0  0  0  0
   19.3060  -12.8744   -0.8705 O   0  0  0  0  0  0  0  0  0  0  0  0
   11.8588  -16.6021   -1.2633 H   0  0  0  0  0  0  0  0  0  0  0  0
   10.7775  -20.7151   -0.4696 H   0  0  0  0  0  0  0  0  0  0  0  0
   15.3011  -17.0011    1.1367 H   0  0  0  0  0  0  0  0  0  0  0  0
   16.5465  -18.4840   -1.3238 H   0  0  0  0  0  0  0  0  0  0  0  0
   17.1709  -18.5995    0.3761 H   0  0  0  0  0  0  0  0  0  0  0  0
   15.0862  -14.5733   -0.9051 H   0  0  0  0  0  0  0  0  0  0  0  0
   18.3182  -17.0972    0.4671 H   0  0  0  0  0  0  0  0  0  0  0  0
   16.7158  -12.7233   -1.3163 H   0  0  0  0  0  0  0  0  0  0  0  0
   19.9421  -15.2496    0.0596 H   0  0  0  0  0  0  0  0  0  0  0  0
    9.1932  -19.0829   -1.1547 H   0  0  0  0  0  0  0  0  0  0  0  0
   12.5179  -22.1916    0.2166 H   0  0  0  0  0  0  0  0  0  0  0  0
   20.2889  -13.0127   -0.6731 H   0  0  0  0  0  0  0  0  0  0  0  0
  3  1  2  0  0  0  0
  4  2  2  0  0  0  0
  5  3  1  0  0  0  0
  6  4  1  0  0  0  0
  6  5  2  0  0  0  0
  8  7  1  0  0  0  0
  9  7  1  0  0  0  0
 10  8  1  0  0  0  0
  1  9  1  0  0  0  0
  2 10  1  0  0  0  0
  2  1  1  0  0  0  0
 12 11  1  0  0  0  0
 13 11  2  0  0  0  0
 14 12  2  0  0  0  0
 15 13  1  0  0  0  0
 16 14  1  0  0  0  0
 16 15  2  0  0  0  0
  7 11  1  0  0  0  0
  5 17  1  0  0  0  0
  4 18  1  0  0  0  0
 10 19  2  0  0  0  0
 16 20  1  0  0  0  0
 21  3  1  0  0  0  0
 22  6  1  0  0  0  0
 23  7  1  0  0  0  0
 24  8  1  0  0  0  0
 25  8  1  0  0  0  0
 26 12  1  0  0  0  0
 27 13  1  0  0  0  0
 28 14  1  0  0  0  0
 29 15  1  0  0  0  0
 30 17  1  0  0  0  0
 31 18  1  0  0  0  0
 32 20  1  0  0  0  0
M  END
