
  ACD/Labs08221023513D

 83 87  0  0  0  0  0  0  0  0  1 V2000
   17.8891  -15.9614   -0.9080 C   0  0  0  0  0  0  0  0  0  0  0  0
   18.7453  -17.3054   -0.9906 C   0  0  0  0  0  0  0  0  0  0  0  0
   16.8901  -16.5656   -1.9108 C   0  0  0  0  0  0  0  0  0  0  0  0
   18.1794  -18.7772   -1.2331 C   0  0  0  0  0  0  0  0  0  0  0  0
   16.0004  -17.5510   -1.1693 C   0  0  0  0  0  0  0  0  0  0  0  0
   16.6554  -18.8887   -1.4148 C   0  0  0  0  0  0  0  0  0  0  0  0
   19.9972  -14.6285   -1.0859 C   0  0  0  0  0  0  0  0  0  0  0  0
   20.8594  -15.8967   -1.1704 C   0  0  0  0  0  0  0  0  0  0  0  0
   18.4245  -14.9039   -0.9121 C   0  0  0  0  0  0  0  0  0  0  0  0
   20.0563  -17.0557   -1.7768 C   0  0  0  0  0  0  0  0  0  0  0  0
   19.8208  -12.1865   -1.1832 C   0  0  0  0  0  0  0  0  0  0  0  0
   20.5825  -13.3405   -1.6827 C   0  0  0  0  0  0  0  0  0  0  0  0
   18.4002  -12.2161   -1.6908 C   0  0  0  0  0  0  0  0  0  0  0  0
   18.0591  -13.7227   -1.9232 C   0  0  0  0  0  0  0  0  0  0  0  0
   20.6270  -11.0176   -1.6697 C   0  0  0  0  0  0  0  0  0  0  0  0
   22.1137  -11.4796   -1.5084 C   0  0  0  0  0  0  0  0  0  0  0  0
   22.0379  -13.0711   -1.2789 C   0  0  0  0  0  0  0  0  0  0  0  0
   16.1438  -19.8383   -0.4933 O   0  0  0  0  0  0  0  0  0  0  0  0
   18.6026  -19.6755   -0.0696 C   0  0  0  0  0  0  0  0  0  0  0  0
   18.7633  -19.3570   -2.5307 C   0  0  0  0  0  0  0  0  0  0  0  0
   17.6249  -15.2189    0.5207 C   0  0  0  0  0  0  0  0  0  0  0  0
   20.5078  -13.4822   -3.2183 C   0  0  0  0  0  0  0  0  0  0  0  0
   19.7028  -12.1717    0.3575 C   0  0  0  0  0  0  0  0  0  0  0  0
   20.3434   -9.7189   -0.8589 C   0  0  0  0  0  0  0  0  0  0  0  0
   21.1149   -8.5173   -1.4637 C   0  0  0  0  0  0  0  0  0  0  0  0
   18.8451   -9.4030   -0.9054 C   0  0  0  0  0  0  0  0  0  0  0  0
   22.6054   -8.7619   -1.7393 C   0  0  0  0  0  0  0  0  0  0  0  0
   23.3610   -7.4314   -1.8645 C   0  0  0  0  0  0  0  0  0  0  0  0
   24.6796   -7.5833   -2.6459 C   0  0  0  0  0  0  0  0  0  0  0  0
   25.5530   -6.3494   -2.3996 C   0  0  0  0  0  0  0  0  0  0  0  0
   25.4596   -8.8375   -2.2370 C   0  0  0  0  0  0  0  0  0  0  0  0
   16.4354  -19.2136   -2.4576 H   0  0  0  0  0  0  0  0  0  0  0  0
   20.3849  -10.7868   -2.7339 H   0  0  0  0  0  0  0  0  0  0  0  0
   20.6723   -9.8769    0.1929 H   0  0  0  0  0  0  0  0  0  0  0  0
   18.8738  -17.4463    0.1039 H   0  0  0  0  0  0  0  0  0  0  0  0
   16.2639  -15.7616   -2.3535 H   0  0  0  0  0  0  0  0  0  0  0  0
   17.4378  -17.0963   -2.7187 H   0  0  0  0  0  0  0  0  0  0  0  0
   15.9723  -17.3212   -0.0827 H   0  0  0  0  0  0  0  0  0  0  0  0
   14.9673  -17.5389   -1.5778 H   0  0  0  0  0  0  0  0  0  0  0  0
   20.2361  -14.1404   -0.1170 H   0  0  0  0  0  0  0  0  0  0  0  0
   21.7460  -15.6940   -1.8085 H   0  0  0  0  0  0  0  0  0  0  0  0
   21.1941  -16.1796   -0.1495 H   0  0  0  0  0  0  0  0  0  0  0  0
   20.6790  -17.9754   -1.7498 H   0  0  0  0  0  0  0  0  0  0  0  0
   19.8083  -16.8066   -2.8307 H   0  0  0  0  0  0  0  0  0  0  0  0
   17.7227  -11.7671   -0.9334 H   0  0  0  0  0  0  0  0  0  0  0  0
   18.3294  -11.6413   -2.6389 H   0  0  0  0  0  0  0  0  0  0  0  0
   18.5454  -13.9798   -2.8885 H   0  0  0  0  0  0  0  0  0  0  0  0
   16.9552  -13.7499   -2.0453 H   0  0  0  0  0  0  0  0  0  0  0  0
   22.6892  -11.2361   -2.4270 H   0  0  0  0  0  0  0  0  0  0  0  0
   22.5768  -10.9723   -0.6352 H   0  0  0  0  0  0  0  0  0  0  0  0
   22.2143  -13.3560   -0.2196 H   0  0  0  0  0  0  0  0  0  0  0  0
   22.7405  -13.6284   -1.9347 H   0  0  0  0  0  0  0  0  0  0  0  0
   15.6623  -20.6621   -0.8304 H   0  0  0  0  0  0  0  0  0  0  0  0
   18.5665  -20.7385   -0.3908 H   0  0  0  0  0  0  0  0  0  0  0  0
   19.6381  -19.4172    0.2396 H   0  0  0  0  0  0  0  0  0  0  0  0
   17.9102  -19.5235    0.7860 H   0  0  0  0  0  0  0  0  0  0  0  0
   18.1591  -19.0095   -3.3959 H   0  0  0  0  0  0  0  0  0  0  0  0
   19.8131  -19.0130   -2.6501 H   0  0  0  0  0  0  0  0  0  0  0  0
   18.7387  -20.4669   -2.4839 H   0  0  0  0  0  0  0  0  0  0  0  0
   16.6513  -14.7504    0.7796 H   0  0  0  0  0  0  0  0  0  0  0  0
   18.1559  -15.5096    1.4523 H   0  0  0  0  0  0  0  0  0  0  0  0
   19.6664  -12.8688   -3.6060 H   0  0  0  0  0  0  0  0  0  0  0  0
   21.4606  -13.1307   -3.6691 H   0  0  0  0  0  0  0  0  0  0  0  0
   20.3418  -14.5483   -3.4839 H   0  0  0  0  0  0  0  0  0  0  0  0
   18.6847  -11.8343    0.6474 H   0  0  0  0  0  0  0  0  0  0  0  0
   19.8799  -13.1952    0.7519 H   0  0  0  0  0  0  0  0  0  0  0  0
   20.4581  -11.4746    0.7797 H   0  0  0  0  0  0  0  0  0  0  0  0
   20.6331   -8.2453   -2.4271 H   0  0  0  0  0  0  0  0  0  0  0  0
   21.0374   -7.6640   -0.7564 H   0  0  0  0  0  0  0  0  0  0  0  0
   18.5265   -9.2759   -1.9622 H   0  0  0  0  0  0  0  0  0  0  0  0
   18.2762  -10.2392   -0.4452 H   0  0  0  0  0  0  0  0  0  0  0  0
   18.6472   -8.4650   -0.3436 H   0  0  0  0  0  0  0  0  0  0  0  0
   23.0391   -9.3497   -0.9021 H   0  0  0  0  0  0  0  0  0  0  0  0
   22.7120   -9.3320   -2.6869 H   0  0  0  0  0  0  0  0  0  0  0  0
   22.7120   -6.7014   -2.3938 H   0  0  0  0  0  0  0  0  0  0  0  0
   23.5892   -7.0537   -0.8449 H   0  0  0  0  0  0  0  0  0  0  0  0
   24.4286   -7.6819   -3.7236 H   0  0  0  0  0  0  0  0  0  0  0  0
   25.5764   -5.7235   -3.3173 H   0  0  0  0  0  0  0  0  0  0  0  0
   25.1298   -5.7584   -1.5592 H   0  0  0  0  0  0  0  0  0  0  0  0
   26.5853   -6.6717   -2.1448 H   0  0  0  0  0  0  0  0  0  0  0  0
   25.5881   -9.4979   -3.1213 H   0  0  0  0  0  0  0  0  0  0  0  0
   26.4574   -8.5421   -1.8475 H   0  0  0  0  0  0  0  0  0  0  0  0
   24.8982   -9.3813   -1.4473 H   0  0  0  0  0  0  0  0  0  0  0  0
  3  1  1  0  0  0  0
  4  2  1  0  0  0  0
  5  3  1  0  0  0  0
  6  4  1  0  0  0  0
  6  5  1  0  0  0  0
  8  7  1  0  0  0  0
 10  8  1  0  0  0  0
  1  9  1  0  0  0  0
  2 10  1  0  0  0  0
  2  1  1  0  0  0  0
 13 11  1  0  0  0  0
  7 12  1  0  0  0  0
 14 13  1  0  0  0  0
  9  7  1  0  0  0  0
  9 14  1  0  0  0  0
 15 11  1  0  0  0  0
 12 11  1  0  0  0  0
 16 15  1  0  0  0  0
 17 12  1  0  0  0  0
 17 16  1  0  0  0  0
  6 18  1  0  0  0  0
  4 19  1  0  0  0  0
  4 20  1  0  0  0  0
  1 21  1  0  0  0  0
 21  9  1  0  0  0  0
 12 22  1  0  0  0  0
 11 23  1  0  0  0  0
 15 24  1  0  0  0  0
 24 25  1  0  0  0  0
 24 26  1  0  0  0  0
 25 27  1  0  0  0  0
 27 28  1  0  0  0  0
 28 29  1  0  0  0  0
 29 30  1  0  0  0  0
 29 31  1  0  0  0  0
 32  6  1  0  0  0  0
 33 15  1  0  0  0  0
 34 24  1  0  0  0  0
 35  2  1  0  0  0  0
 36  3  1  0  0  0  0
 37  3  1  0  0  0  0
 38  5  1  0  0  0  0
 39  5  1  0  0  0  0
 40  7  1  0  0  0  0
 41  8  1  0  0  0  0
 42  8  1  0  0  0  0
 43 10  1  0  0  0  0
 44 10  1  0  0  0  0
 45 13  1  0  0  0  0
 46 13  1  0  0  0  0
 47 14  1  0  0  0  0
 48 14  1  0  0  0  0
 49 16  1  0  0  0  0
 50 16  1  0  0  0  0
 51 17  1  0  0  0  0
 52 17  1  0  0  0  0
 53 18  1  0  0  0  0
 54 19  1  0  0  0  0
 55 19  1  0  0  0  0
 56 19  1  0  0  0  0
 57 20  1  0  0  0  0
 58 20  1  0  0  0  0
 59 20  1  0  0  0  0
 60 21  1  0  0  0  0
 61 21  1  0  0  0  0
 62 22  1  0  0  0  0
 63 22  1  0  0  0  0
 64 22  1  0  0  0  0
 65 23  1  0  0  0  0
 66 23  1  0  0  0  0
 67 23  1  0  0  0  0
 68 25  1  0  0  0  0
 69 25  1  0  0  0  0
 70 26  1  0  0  0  0
 71 26  1  0  0  0  0
 72 26  1  0  0  0  0
 73 27  1  0  0  0  0
 74 27  1  0  0  0  0
 75 28  1  0  0  0  0
 76 28  1  0  0  0  0
 77 29  1  0  0  0  0
 78 30  1  0  0  0  0
 79 30  1  0  0  0  0
 80 30  1  0  0  0  0
 81 31  1  0  0  0  0
 82 31  1  0  0  0  0
 83 31  1  0  0  0  0
M  END
