
  ACD/Labs07111011543D

 35 37  0  0  0  0  0  0  0  0  1 V2000
   18.3159  -15.6273   -1.7517 C   0  0  0  0  0  0  0  0  0  0  0  0
   16.9396  -14.9226   -1.7284 C   0  0  0  0  0  0  0  0  0  0  0  0
   19.3953  -14.9181   -0.9560 C   0  0  0  0  0  0  0  0  0  0  0  0
   16.8180  -13.3921   -1.9728 C   0  0  0  0  0  0  0  0  0  0  0  0
   19.8391  -13.6832   -1.7060 C   0  0  0  0  0  0  0  0  0  0  0  0
   19.1082  -12.4892   -1.1369 C   0  0  0  0  0  0  0  0  0  0  0  0
   17.7112  -12.4068   -1.7211 C   0  0  0  0  0  0  0  0  0  0  0  0
   20.5357  -15.7740   -0.7672 O   0  0  0  0  0  0  0  0  0  0  0  0
   21.6508  -15.0121   -0.9369 C   0  0  0  0  0  0  0  0  0  0  0  0
   21.3073  -13.7165   -1.4588 C   0  0  0  0  0  0  0  0  0  0  0  0
   17.9778  -16.8976   -1.0542 C   0  0  0  0  0  0  0  0  0  0  0  0
   16.7259  -16.8164   -0.2238 C   0  0  0  0  0  0  0  0  0  0  0  0
   16.3812  -15.3157   -0.3535 C   0  0  0  0  0  0  0  0  0  0  0  0
   22.7774  -15.3768   -0.6867 O   0  0  0  0  0  0  0  0  0  0  0  0
   22.1703  -12.7226   -1.7116 C   0  0  0  0  0  0  0  0  0  0  0  0
   18.7217  -18.0086   -1.1482 C   0  0  0  0  0  0  0  0  0  0  0  0
   15.5091  -12.9359   -2.5697 C   0  0  0  0  0  0  0  0  0  0  0  0
   18.9810  -14.6382    0.0397 H   0  0  0  0  0  0  0  0  0  0  0  0
   18.7433  -15.7239   -2.7726 H   0  0  0  0  0  0  0  0  0  0  0  0
   16.3781  -15.2715   -2.6213 H   0  0  0  0  0  0  0  0  0  0  0  0
   19.6347  -13.6315   -2.7968 H   0  0  0  0  0  0  0  0  0  0  0  0
   19.0406  -12.5934   -0.0329 H   0  0  0  0  0  0  0  0  0  0  0  0
   19.6681  -11.5632   -1.3885 H   0  0  0  0  0  0  0  0  0  0  0  0
   17.2549  -11.4397   -2.0222 H   0  0  0  0  0  0  0  0  0  0  0  0
   15.9262  -17.4642   -0.6423 H   0  0  0  0  0  0  0  0  0  0  0  0
   16.9257  -17.1075    0.8296 H   0  0  0  0  0  0  0  0  0  0  0  0
   16.8690  -14.7257    0.4516 H   0  0  0  0  0  0  0  0  0  0  0  0
   15.2823  -15.1565   -0.3160 H   0  0  0  0  0  0  0  0  0  0  0  0
   23.2547  -12.8656   -1.5169 H   0  0  0  0  0  0  0  0  0  0  0  0
   21.8013  -11.7558   -2.1158 H   0  0  0  0  0  0  0  0  0  0  0  0
   18.4223  -18.9259   -0.5976 H   0  0  0  0  0  0  0  0  0  0  0  0
   19.6378  -18.0122   -1.7768 H   0  0  0  0  0  0  0  0  0  0  0  0
   15.5044  -13.1516   -3.6596 H   0  0  0  0  0  0  0  0  0  0  0  0
   14.6710  -13.4779   -2.0814 H   0  0  0  0  0  0  0  0  0  0  0  0
   15.3897  -11.8431   -2.4080 H   0  0  0  0  0  0  0  0  0  0  0  0
  3  1  1  0  0  0  0
  4  2  1  0  0  0  0
  7  4  2  0  0  0  0
  6  5  1  0  0  0  0
  7  6  1  0  0  0  0
  8  3  1  0  0  0  0
  5  3  1  0  0  0  0
  9  8  1  0  0  0  0
 10  5  1  0  0  0  0
 10  9  1  0  0  0  0
 11  1  1  0  0  0  0
  2  1  1  0  0  0  0
 12 11  1  0  0  0  0
 13  2  1  0  0  0  0
 13 12  1  0  0  0  0
  9 14  2  0  0  0  0
 10 15  2  0  0  0  0
 11 16  2  0  0  0  0
  4 17  1  0  0  0  0
 18  3  1  0  0  0  0
 19  1  1  0  0  0  0
 20  2  1  0  0  0  0
 21  5  1  0  0  0  0
 22  6  1  0  0  0  0
 23  6  1  0  0  0  0
 24  7  1  0  0  0  0
 25 12  1  0  0  0  0
 26 12  1  0  0  0  0
 27 13  1  0  0  0  0
 28 13  1  0  0  0  0
 29 15  1  0  0  0  0
 30 15  1  0  0  0  0
 31 16  1  0  0  0  0
 32 16  1  0  0  0  0
 33 17  1  0  0  0  0
 34 17  1  0  0  0  0
 35 17  1  0  0  0  0
M  END
