
  ACD/Labs07111023003D

 30 32  0  0  0  0  0  0  0  0  1 V2000
   18.8062  -11.0100   -3.1278 C   0  0  0  0  0  0  0  0  0  0  0  0
   18.4798  -12.3517   -2.9939 C   0  0  0  0  0  0  0  0  0  0  0  0
   18.4559  -10.3209   -4.2772 C   0  0  0  0  0  0  0  0  0  0  0  0
   17.8088  -13.0077   -4.0138 C   0  0  0  0  0  0  0  0  0  0  0  0
   17.7825  -10.9763   -5.2957 C   0  0  0  0  0  0  0  0  0  0  0  0
   17.4609  -12.3185   -5.1650 C   0  0  0  0  0  0  0  0  0  0  0  0
   20.0386  -11.1115   -0.8929 C   0  0  0  0  0  0  0  0  0  0  0  0
   19.7189  -12.4118   -0.7609 C   0  0  0  0  0  0  0  0  0  0  0  0
   19.5385  -10.3274   -2.0434 C   0  0  0  0  0  0  0  0  0  0  0  0
   18.8485  -13.0712   -1.7594 C   0  0  0  0  0  0  0  0  0  0  0  0
   18.4232  -14.1856   -1.5549 O   0  0  0  0  0  0  0  0  0  0  0  0
   19.7482   -9.1372   -2.1054 O   0  0  0  0  0  0  0  0  0  0  0  0
   21.2691  -11.1376    1.2185 C   0  0  0  0  0  0  0  0  0  0  0  0
   20.7787  -12.5540    1.4724 C   0  0  0  0  0  0  0  0  0  0  0  0
   20.9070  -10.4745    0.1092 C   0  0  0  0  0  0  0  0  0  0  0  0
   20.1996  -13.1274    0.2985 O   0  0  0  0  0  0  0  0  0  0  0  0
   21.9536  -13.4186    1.9320 C   0  0  0  0  0  0  0  0  0  0  0  0
   19.7154  -12.5215    2.5726 C   0  0  0  0  0  0  0  0  0  0  0  0
   18.7144   -9.2455   -4.3818 H   0  0  0  0  0  0  0  0  0  0  0  0
   17.5505  -14.0832   -3.9088 H   0  0  0  0  0  0  0  0  0  0  0  0
   17.5002  -10.4251   -6.2180 H   0  0  0  0  0  0  0  0  0  0  0  0
   16.9235  -12.8425   -5.9842 H   0  0  0  0  0  0  0  0  0  0  0  0
   21.9346  -10.5497    1.8861 H   0  0  0  0  0  0  0  0  0  0  0  0
   21.3089   -9.4423    0.0242 H   0  0  0  0  0  0  0  0  0  0  0  0
   22.7622  -13.3787    1.1711 H   0  0  0  0  0  0  0  0  0  0  0  0
   22.3382  -13.0351    2.9014 H   0  0  0  0  0  0  0  0  0  0  0  0
   21.6135  -14.4690    2.0563 H   0  0  0  0  0  0  0  0  0  0  0  0
   20.1240  -12.9854    3.4958 H   0  0  0  0  0  0  0  0  0  0  0  0
   19.4318  -11.4678    2.7820 H   0  0  0  0  0  0  0  0  0  0  0  0
   18.8200  -13.0883    2.2385 H   0  0  0  0  0  0  0  0  0  0  0  0
  3  1  1  0  0  0  0
  4  2  1  0  0  0  0
  5  3  2  0  0  0  0
  6  4  2  0  0  0  0
  6  5  1  0  0  0  0
  8  7  2  0  0  0  0
  9  7  1  0  0  0  0
 10  8  1  0  0  0  0
  1  9  1  0  0  0  0
  2 10  1  0  0  0  0
  2  1  2  0  0  0  0
 10 11  2  0  0  0  0
  9 12  2  0  0  0  0
 14 13  1  0  0  0  0
 15 13  2  0  0  0  0
 16 14  1  0  0  0  0
  7 15  1  0  0  0  0
  8 16  1  0  0  0  0
 14 17  1  0  0  0  0
 14 18  1  0  0  0  0
 19  3  1  0  0  0  0
 20  4  1  0  0  0  0
 21  5  1  0  0  0  0
 22  6  1  0  0  0  0
 23 13  1  0  0  0  0
 24 15  1  0  0  0  0
 25 17  1  0  0  0  0
 26 17  1  0  0  0  0
 27 17  1  0  0  0  0
 28 18  1  0  0  0  0
 29 18  1  0  0  0  0
 30 18  1  0  0  0  0
M  END
