
  ACD/Labs08291010053D

 50 53  0  0  0  0  0  0  0  0  1 V2000
   13.9469  -12.9155   -0.5290 C   0  0  0  0  0  0  0  0  0  0  0  0
   13.8161  -14.4433   -0.6276 C   0  0  0  0  0  0  0  0  0  0  0  0
   13.1370  -12.3020   -1.6092 N   0  0  0  0  0  0  0  0  0  0  0  0
   12.3531  -14.8362   -0.4204 C   0  0  0  0  0  0  0  0  0  0  0  0
   11.7135  -12.6519   -1.4315 C   0  0  0  0  0  0  0  0  0  0  0  0
   11.5005  -14.1688   -1.4999 C   0  0  0  0  0  0  0  0  0  0  0  0
   15.4335  -12.5374   -0.5933 C   0  0  0  0  0  0  0  0  0  0  0  0
   15.8373  -11.3346   -1.1515 C   0  0  0  0  0  0  0  0  0  0  0  0
   16.3818  -13.4050   -0.0637 C   0  0  0  0  0  0  0  0  0  0  0  0
   17.1744  -10.9821   -1.1697 C   0  0  0  0  0  0  0  0  0  0  0  0
   17.7289  -13.0489   -0.0864 C   0  0  0  0  0  0  0  0  0  0  0  0
   18.1193  -11.8370   -0.6319 C   0  0  0  0  0  0  0  0  0  0  0  0
   20.4457  -12.2348   -0.0766 C   0  0  0  0  0  0  0  0  0  0  0  0
   20.1707  -13.4336    0.4640 C   0  0  0  0  0  0  0  0  0  0  0  0
   19.4421  -11.4866   -0.6345 O   0  0  0  0  0  0  0  0  0  0  0  0
   18.7823  -13.9123    0.4629 C   0  0  0  0  0  0  0  0  0  0  0  0
   21.8249  -11.7011   -0.0709 C   0  0  0  0  0  0  0  0  0  0  0  0
   22.1088  -10.5220   -0.7435 C   0  0  0  0  0  0  0  0  0  0  0  0
   22.8381  -12.3611    0.6089 C   0  0  0  0  0  0  0  0  0  0  0  0
   23.3964  -10.0071   -0.7376 C   0  0  0  0  0  0  0  0  0  0  0  0
   24.1261  -11.8477    0.6138 C   0  0  0  0  0  0  0  0  0  0  0  0
   24.4055  -10.6686   -0.0583 C   0  0  0  0  0  0  0  0  0  0  0  0
   14.9107  -10.4880   -1.6770 O   0  0  0  0  0  0  0  0  0  0  0  0
   13.1601  -10.8301   -1.5811 C   0  0  0  0  0  0  0  0  0  0  0  0
   15.9247  -14.5836    0.4691 O   0  0  0  0  0  0  0  0  0  0  0  0
   18.5060  -14.9932    0.9307 O   0  0  0  0  0  0  0  0  0  0  0  0
   16.6988  -15.5996    1.0965 C   0  0  0  0  0  0  0  0  0  0  0  0
   13.5314  -12.5073    0.4171 H   0  0  0  0  0  0  0  0  0  0  0  0
   14.1517  -14.7828   -1.6308 H   0  0  0  0  0  0  0  0  0  0  0  0
   14.4422  -14.9229    0.1549 H   0  0  0  0  0  0  0  0  0  0  0  0
   12.2501  -15.9399   -0.4941 H   0  0  0  0  0  0  0  0  0  0  0  0
   12.0154  -14.4983    0.5826 H   0  0  0  0  0  0  0  0  0  0  0  0
   11.3829  -12.2698   -0.4420 H   0  0  0  0  0  0  0  0  0  0  0  0
   11.1304  -12.1535   -2.2352 H   0  0  0  0  0  0  0  0  0  0  0  0
   11.8052  -14.5446   -2.5000 H   0  0  0  0  0  0  0  0  0  0  0  0
   10.4288  -14.4043   -1.3259 H   0  0  0  0  0  0  0  0  0  0  0  0
   17.4888  -10.0142   -1.6155 H   0  0  0  0  0  0  0  0  0  0  0  0
   21.0342  -13.9922    0.8842 H   0  0  0  0  0  0  0  0  0  0  0  0
   21.3016   -9.9880   -1.2890 H   0  0  0  0  0  0  0  0  0  0  0  0
   22.6170  -13.3049    1.1516 H   0  0  0  0  0  0  0  0  0  0  0  0
   23.6199   -9.0626   -1.2783 H   0  0  0  0  0  0  0  0  0  0  0  0
   24.9351  -12.3816    1.1568 H   0  0  0  0  0  0  0  0  0  0  0  0
   25.4365  -10.2545   -0.0524 H   0  0  0  0  0  0  0  0  0  0  0  0
   15.2014   -9.6057   -2.0785 H   0  0  0  0  0  0  0  0  0  0  0  0
   13.3644  -10.4437   -2.6026 H   0  0  0  0  0  0  0  0  0  0  0  0
   12.1756  -10.4513   -1.2320 H   0  0  0  0  0  0  0  0  0  0  0  0
   13.9578  -10.4858   -0.8885 H   0  0  0  0  0  0  0  0  0  0  0  0
   17.0770  -16.3053    0.3262 H   0  0  0  0  0  0  0  0  0  0  0  0
   17.5578  -15.1357    1.6271 H   0  0  0  0  0  0  0  0  0  0  0  0
   16.0657  -16.1506    1.8245 H   0  0  0  0  0  0  0  0  0  0  0  0
  2  1  1  0  0  0  0
  3  1  1  0  0  0  0
  4  2  1  0  0  0  0
  5  3  1  0  0  0  0
  6  4  1  0  0  0  0
  6  5  1  0  0  0  0
  8  7  1  0  0  0  0
  9  7  2  0  0  0  0
 10  8  2  0  0  0  0
 11  9  1  0  0  0  0
 12 10  1  0  0  0  0
  1  7  1  0  0  0  0
 14 13  2  0  0  0  0
 15 13  1  0  0  0  0
 16 14  1  0  0  0  0
 12 15  1  0  0  0  0
 11 16  1  0  0  0  0
 11 12  2  0  0  0  0
 18 17  1  0  0  0  0
 19 17  2  0  0  0  0
 20 18  2  0  0  0  0
 21 19  1  0  0  0  0
 22 20  1  0  0  0  0
 22 21  2  0  0  0  0
 13 17  1  0  0  0  0
  8 23  1  0  0  0  0
  3 24  1  0  0  0  0
  9 25  1  0  0  0  0
 16 26  2  0  0  0  0
 25 27  1  0  0  0  0
 28  1  1  0  0  0  0
 29  2  1  0  0  0  0
 30  2  1  0  0  0  0
 31  4  1  0  0  0  0
 32  4  1  0  0  0  0
 33  5  1  0  0  0  0
 34  5  1  0  0  0  0
 35  6  1  0  0  0  0
 36  6  1  0  0  0  0
 37 10  1  0  0  0  0
 38 14  1  0  0  0  0
 39 18  1  0  0  0  0
 40 19  1  0  0  0  0
 41 20  1  0  0  0  0
 42 21  1  0  0  0  0
 43 22  1  0  0  0  0
 44 23  1  0  0  0  0
 45 24  1  0  0  0  0
 46 24  1  0  0  0  0
 47 24  1  0  0  0  0
 48 27  1  0  0  0  0
 49 27  1  0  0  0  0
 50 27  1  0  0  0  0
M  END
