
  ACD/Labs07101016323D

 31 31  0  0  0  0  0  0  0  0  1 V2000
   14.3615  -14.2185   -3.1899 C   0  0  0  0  0  0  0  0  0  0  0  0
   14.5581  -15.5810   -3.3592 C   0  0  0  0  0  0  0  0  0  0  0  0
   13.1564  -13.6423   -3.5634 C   0  0  0  0  0  0  0  0  0  0  0  0
   13.5503  -16.3638   -3.9022 C   0  0  0  0  0  0  0  0  0  0  0  0
   12.1504  -14.4262   -4.1057 C   0  0  0  0  0  0  0  0  0  0  0  0
   12.3470  -15.7875   -4.2751 C   0  0  0  0  0  0  0  0  0  0  0  0
   15.9869  -13.7151   -1.2810 C   0  0  0  0  0  0  0  0  0  0  0  0
   15.4374  -13.3875   -2.6146 C   0  0  0  0  0  0  0  0  0  0  0  0
   15.7447  -16.1431   -2.9909 O   0  0  0  0  0  0  0  0  0  0  0  0
   17.7402  -13.5917    0.4590 C   0  0  0  0  0  0  0  0  0  0  0  0
   17.1877  -13.2502   -0.9042 C   0  0  0  0  0  0  0  0  0  0  0  0
   15.9164  -12.3434   -3.3092 C   0  0  0  0  0  0  0  0  0  0  0  0
   15.8025  -17.2754   -2.1310 C   0  0  0  0  0  0  0  0  0  0  0  0
   15.5852  -18.5458   -2.9230 C   0  0  0  0  0  0  0  0  0  0  0  0
   16.1448  -19.6931   -2.5158 C   0  0  0  0  0  0  0  0  0  0  0  0
   15.4017  -14.3532   -0.5855 H   0  0  0  0  0  0  0  0  0  0  0  0
   17.7756  -12.6123   -1.5984 H   0  0  0  0  0  0  0  0  0  0  0  0
   12.9967  -12.5512   -3.4281 H   0  0  0  0  0  0  0  0  0  0  0  0
   13.7072  -17.4552   -4.0388 H   0  0  0  0  0  0  0  0  0  0  0  0
   11.1859  -13.9631   -4.4047 H   0  0  0  0  0  0  0  0  0  0  0  0
   11.5405  -16.4161   -4.7094 H   0  0  0  0  0  0  0  0  0  0  0  0
   18.7859  -13.9525    0.3546 H   0  0  0  0  0  0  0  0  0  0  0  0
   17.7236  -12.6860    1.1024 H   0  0  0  0  0  0  0  0  0  0  0  0
   17.1183  -14.3879    0.9214 H   0  0  0  0  0  0  0  0  0  0  0  0
   16.7307  -11.7193   -2.8831 H   0  0  0  0  0  0  0  0  0  0  0  0
   15.4986  -12.1035   -4.3103 H   0  0  0  0  0  0  0  0  0  0  0  0
   16.8011  -17.2861   -1.6442 H   0  0  0  0  0  0  0  0  0  0  0  0
   15.0139  -17.1593   -1.3571 H   0  0  0  0  0  0  0  0  0  0  0  0
   14.9832  -18.6412   -3.8519 H   0  0  0  0  0  0  0  0  0  0  0  0
   15.9852  -20.6261   -3.0975 H   0  0  0  0  0  0  0  0  0  0  0  0
   16.7685  -19.7114   -1.5966 H   0  0  0  0  0  0  0  0  0  0  0  0
  3  1  1  0  0  0  0
  4  2  1  0  0  0  0
  5  3  2  0  0  0  0
  6  4  2  0  0  0  0
  6  5  1  0  0  0  0
  8  7  1  0  0  0  0
  1  8  1  0  0  0  0
  2  9  1  0  0  0  0
  2  1  2  0  0  0  0
 11 10  1  0  0  0  0
  7 11  2  0  0  0  0
  8 12  2  0  0  0  0
 14 13  1  0  0  0  0
  9 13  1  0  0  0  0
 14 15  2  0  0  0  0
 16  7  1  0  0  0  0
 17 11  1  0  0  0  0
 18  3  1  0  0  0  0
 19  4  1  0  0  0  0
 20  5  1  0  0  0  0
 21  6  1  0  0  0  0
 22 10  1  0  0  0  0
 23 10  1  0  0  0  0
 24 10  1  0  0  0  0
 25 12  1  0  0  0  0
 26 12  1  0  0  0  0
 27 13  1  0  0  0  0
 28 13  1  0  0  0  0
 29 14  1  0  0  0  0
 30 15  1  0  0  0  0
 31 15  1  0  0  0  0
M  END
