
  ACD/Labs08291008063D

 43 45  0  0  0  0  0  0  0  0  1 V2000
   17.2968  -12.0606   -0.0714 C   0  0  0  0  0  0  0  0  0  0  0  0
   17.5944  -13.3460   -0.5102 C   0  0  0  0  0  0  0  0  0  0  0  0
   15.9791  -11.6677    0.0888 C   0  0  0  0  0  0  0  0  0  0  0  0
   16.5631  -14.2323   -0.7970 C   0  0  0  0  0  0  0  0  0  0  0  0
   14.9543  -12.5533   -0.1923 C   0  0  0  0  0  0  0  0  0  0  0  0
   15.2400  -13.8364   -0.6380 C   0  0  0  0  0  0  0  0  0  0  0  0
   19.7851  -11.5130    0.0729 C   0  0  0  0  0  0  0  0  0  0  0  0
   20.1015  -12.7974   -0.3502 C   0  0  0  0  0  0  0  0  0  0  0  0
   18.3801  -11.1061    0.2216 C   0  0  0  0  0  0  0  0  0  0  0  0
   19.0143  -13.7572   -0.6675 C   0  0  0  0  0  0  0  0  0  0  0  0
   22.1197  -10.9769    0.2257 C   0  0  0  0  0  0  0  0  0  0  0  0
   22.4386  -12.2598   -0.1908 C   0  0  0  0  0  0  0  0  0  0  0  0
   20.7916  -10.6048    0.3564 C   0  0  0  0  0  0  0  0  0  0  0  0
   21.4313  -13.1699   -0.4793 C   0  0  0  0  0  0  0  0  0  0  0  0
   23.8885  -12.6582   -0.3313 C   0  0  0  0  0  0  0  0  0  0  0  0
   20.4755   -9.3462    0.7661 O   0  0  0  0  0  0  0  0  0  0  0  0
   18.1156   -9.9815    0.5795 O   0  0  0  0  0  0  0  0  0  0  0  0
   15.6875  -10.4111    0.5198 O   0  0  0  0  0  0  0  0  0  0  0  0
   19.2864  -14.8710   -1.0564 O   0  0  0  0  0  0  0  0  0  0  0  0
   14.2187  -14.6986   -0.9152 O   0  0  0  0  0  0  0  0  0  0  0  0
   12.9220  -14.1905   -1.2053 C   0  0  0  0  0  0  0  0  0  0  0  0
   11.8941  -15.2923   -1.2906 C   0  0  0  0  0  0  0  0  0  0  0  0
   10.6067  -15.0464   -0.9955 C   0  0  0  0  0  0  0  0  0  0  0  0
    9.5910  -16.1581   -1.0901 C   0  0  0  0  0  0  0  0  0  0  0  0
   10.1627  -13.6623   -0.5698 C   0  0  0  0  0  0  0  0  0  0  0  0
   16.7965  -15.2583   -1.1537 H   0  0  0  0  0  0  0  0  0  0  0  0
   13.8988  -12.2331   -0.0597 H   0  0  0  0  0  0  0  0  0  0  0  0
   22.9269  -10.2485    0.4542 H   0  0  0  0  0  0  0  0  0  0  0  0
   21.6896  -14.1974   -0.8138 H   0  0  0  0  0  0  0  0  0  0  0  0
   24.2383  -12.4248   -1.3597 H   0  0  0  0  0  0  0  0  0  0  0  0
   24.5003  -12.0940    0.4048 H   0  0  0  0  0  0  0  0  0  0  0  0
   23.9925  -13.7484   -0.1435 H   0  0  0  0  0  0  0  0  0  0  0  0
   21.2104   -8.6826    0.9750 H   0  0  0  0  0  0  0  0  0  0  0  0
   14.7232  -10.1264    0.6340 H   0  0  0  0  0  0  0  0  0  0  0  0
   12.6521  -13.4775   -0.3971 H   0  0  0  0  0  0  0  0  0  0  0  0
   12.9825  -13.6483   -2.1731 H   0  0  0  0  0  0  0  0  0  0  0  0
   12.0965  -16.3437   -1.5873 H   0  0  0  0  0  0  0  0  0  0  0  0
    9.2090  -16.2225   -2.1315 H   0  0  0  0  0  0  0  0  0  0  0  0
   10.0695  -17.1213   -0.8110 H   0  0  0  0  0  0  0  0  0  0  0  0
    8.7471  -15.9480   -0.3986 H   0  0  0  0  0  0  0  0  0  0  0  0
   10.0490  -13.0178   -1.4677 H   0  0  0  0  0  0  0  0  0  0  0  0
    9.1890  -13.7330   -0.0391 H   0  0  0  0  0  0  0  0  0  0  0  0
   10.9246  -13.2215    0.1082 H   0  0  0  0  0  0  0  0  0  0  0  0
  3  1  2  0  0  0  0
  4  2  2  0  0  0  0
  5  3  1  0  0  0  0
  6  4  1  0  0  0  0
  6  5  2  0  0  0  0
  9  7  1  0  0  0  0
 10  8  1  0  0  0  0
  1  9  1  0  0  0  0
  2 10  1  0  0  0  0
  2  1  1  0  0  0  0
 12 11  2  0  0  0  0
 13 11  1  0  0  0  0
 14 12  1  0  0  0  0
  7 13  2  0  0  0  0
  8 14  2  0  0  0  0
  8  7  1  0  0  0  0
 12 15  1  0  0  0  0
 13 16  1  0  0  0  0
  9 17  2  0  0  0  0
  3 18  1  0  0  0  0
 10 19  2  0  0  0  0
  6 20  1  0  0  0  0
 20 21  1  0  0  0  0
 21 22  1  0  0  0  0
 22 23  2  0  0  0  0
 23 24  1  0  0  0  0
 23 25  1  0  0  0  0
 26  4  1  0  0  0  0
 27  5  1  0  0  0  0
 28 11  1  0  0  0  0
 29 14  1  0  0  0  0
 30 15  1  0  0  0  0
 31 15  1  0  0  0  0
 32 15  1  0  0  0  0
 33 16  1  0  0  0  0
 34 18  1  0  0  0  0
 35 21  1  0  0  0  0
 36 21  1  0  0  0  0
 37 22  1  0  0  0  0
 38 24  1  0  0  0  0
 39 24  1  0  0  0  0
 40 24  1  0  0  0  0
 41 25  1  0  0  0  0
 42 25  1  0  0  0  0
 43 25  1  0  0  0  0
M  END
