
  ACD/Labs08231022503D

 44 46  0  0  0  0  0  0  0  0  1 V2000
   13.2881  -13.9083   -0.9920 C   0  0  0  0  0  0  0  0  0  0  0  0
   12.9372  -15.2144   -1.2940 C   0  0  0  0  0  0  0  0  0  0  0  0
   12.4339  -12.8699   -1.3477 C   0  0  0  0  0  0  0  0  0  0  0  0
   11.7524  -15.4984   -1.9507 C   0  0  0  0  0  0  0  0  0  0  0  0
   11.2452  -13.1549   -2.0044 C   0  0  0  0  0  0  0  0  0  0  0  0
   10.9039  -14.4638   -2.3072 C   0  0  0  0  0  0  0  0  0  0  0  0
   15.4545  -14.6175   -0.1531 C   0  0  0  0  0  0  0  0  0  0  0  0
   15.1937  -15.9109   -0.4202 C   0  0  0  0  0  0  0  0  0  0  0  0
   14.4790  -13.6636   -0.3497 O   0  0  0  0  0  0  0  0  0  0  0  0
   13.8520  -16.2830   -0.9022 C   0  0  0  0  0  0  0  0  0  0  0  0
   16.7914  -14.2144    0.3545 C   0  0  0  0  0  0  0  0  0  0  0  0
   17.2182  -12.9057    0.1941 C   0  0  0  0  0  0  0  0  0  0  0  0
   17.6207  -15.1308    0.9893 C   0  0  0  0  0  0  0  0  0  0  0  0
   18.4629  -12.5132    0.6624 C   0  0  0  0  0  0  0  0  0  0  0  0
   18.8667  -14.7394    1.4571 C   0  0  0  0  0  0  0  0  0  0  0  0
   19.2876  -13.4285    1.2961 C   0  0  0  0  0  0  0  0  0  0  0  0
   10.4084  -12.1415   -2.3524 O   0  0  0  0  0  0  0  0  0  0  0  0
   11.4242  -16.7860   -2.2439 O   0  0  0  0  0  0  0  0  0  0  0  0
   13.4994  -17.4396   -0.9474 O   0  0  0  0  0  0  0  0  0  0  0  0
   16.1513  -16.8592   -0.2300 O   0  0  0  0  0  0  0  0  0  0  0  0
   12.7564  -11.4176   -1.0327 C   0  0  0  0  0  0  0  0  0  0  0  0
   14.1561  -11.2182   -0.4874 C   0  0  0  0  0  0  0  0  0  0  0  0
   14.7606  -10.0194   -0.5322 C   0  0  0  0  0  0  0  0  0  0  0  0
   16.1516   -9.8706    0.0308 C   0  0  0  0  0  0  0  0  0  0  0  0
   14.0680   -8.8130   -1.1310 C   0  0  0  0  0  0  0  0  0  0  0  0
   20.5073  -13.0393    1.7587 O   0  0  0  0  0  0  0  0  0  0  0  0
    9.9513  -14.6834   -2.8350 H   0  0  0  0  0  0  0  0  0  0  0  0
   16.5597  -12.1679   -0.3122 H   0  0  0  0  0  0  0  0  0  0  0  0
   17.2859  -16.1816    1.1233 H   0  0  0  0  0  0  0  0  0  0  0  0
   18.8002  -11.4630    0.5296 H   0  0  0  0  0  0  0  0  0  0  0  0
   19.5280  -15.4763    1.9610 H   0  0  0  0  0  0  0  0  0  0  0  0
    9.5399  -12.3440   -2.8308 H   0  0  0  0  0  0  0  0  0  0  0  0
   10.5573  -16.9903   -2.7243 H   0  0  0  0  0  0  0  0  0  0  0  0
   15.9451  -17.8316   -0.4200 H   0  0  0  0  0  0  0  0  0  0  0  0
   12.6550  -10.8223   -1.9653 H   0  0  0  0  0  0  0  0  0  0  0  0
   12.0297  -11.0497   -0.2771 H   0  0  0  0  0  0  0  0  0  0  0  0
   14.7842  -12.0073   -0.0215 H   0  0  0  0  0  0  0  0  0  0  0  0
   16.8853   -9.8271   -0.8025 H   0  0  0  0  0  0  0  0  0  0  0  0
   16.2116   -8.9344    0.6261 H   0  0  0  0  0  0  0  0  0  0  0  0
   16.3823  -10.7408    0.6820 H   0  0  0  0  0  0  0  0  0  0  0  0
   14.4002   -8.6800   -2.1829 H   0  0  0  0  0  0  0  0  0  0  0  0
   12.9680   -8.9681   -1.1070 H   0  0  0  0  0  0  0  0  0  0  0  0
   14.3287   -7.9070   -0.5430 H   0  0  0  0  0  0  0  0  0  0  0  0
   21.1098  -13.7077    2.2216 H   0  0  0  0  0  0  0  0  0  0  0  0
  3  1  1  0  0  0  0
  4  2  1  0  0  0  0
  5  3  2  0  0  0  0
  6  4  2  0  0  0  0
  6  5  1  0  0  0  0
  8  7  2  0  0  0  0
  9  7  1  0  0  0  0
 10  8  1  0  0  0  0
  1  9  1  0  0  0  0
  2 10  1  0  0  0  0
  2  1  2  0  0  0  0
 12 11  1  0  0  0  0
 13 11  2  0  0  0  0
 14 12  2  0  0  0  0
 15 13  1  0  0  0  0
 16 14  1  0  0  0  0
 16 15  2  0  0  0  0
  7 11  1  0  0  0  0
  5 17  1  0  0  0  0
  4 18  1  0  0  0  0
 10 19  2  0  0  0  0
  8 20  1  0  0  0  0
  3 21  1  0  0  0  0
 21 22  1  0  0  0  0
 22 23  2  0  0  0  0
 23 24  1  0  0  0  0
 23 25  1  0  0  0  0
 16 26  1  0  0  0  0
 27  6  1  0  0  0  0
 28 12  1  0  0  0  0
 29 13  1  0  0  0  0
 30 14  1  0  0  0  0
 31 15  1  0  0  0  0
 32 17  1  0  0  0  0
 33 18  1  0  0  0  0
 34 20  1  0  0  0  0
 35 21  1  0  0  0  0
 36 21  1  0  0  0  0
 37 22  1  0  0  0  0
 38 24  1  0  0  0  0
 39 24  1  0  0  0  0
 40 24  1  0  0  0  0
 41 25  1  0  0  0  0
 42 25  1  0  0  0  0
 43 25  1  0  0  0  0
 44 26  1  0  0  0  0
M  END
