
  ACD/Labs08311009403D

 46 48  0  0  0  0  0  0  0  0  1 V2000
   17.3988  -14.6979   -0.9231 C   0  0  0  0  0  0  0  0  0  0  0  0
   17.1184  -16.0268   -1.2429 C   0  0  0  0  0  0  0  0  0  0  0  0
   16.4147  -13.7309   -1.0496 C   0  0  0  0  0  0  0  0  0  0  0  0
   15.8440  -16.3432   -1.6941 C   0  0  0  0  0  0  0  0  0  0  0  0
   15.1486  -14.0608   -1.4979 C   0  0  0  0  0  0  0  0  0  0  0  0
   14.8603  -15.3756   -1.8257 C   0  0  0  0  0  0  0  0  0  0  0  0
   18.7061  -14.2547   -0.4592 C   0  0  0  0  0  0  0  0  0  0  0  0
   19.9447  -14.8357   -1.0535 C   0  0  0  0  0  0  0  0  0  0  0  0
   18.0844  -17.1743   -1.1586 C   0  0  0  0  0  0  0  0  0  0  0  0
   19.3703  -17.2333   -0.7420 C   0  0  0  0  0  0  0  0  0  0  0  0
   20.1831  -16.0619   -0.1919 C   0  0  0  0  0  0  0  0  0  0  0  0
   20.0524  -18.5779   -0.8042 C   0  0  0  0  0  0  0  0  0  0  0  0
   21.3246  -18.4786   -1.6628 C   0  0  0  0  0  0  0  0  0  0  0  0
   21.6961  -16.4174   -0.1491 C   0  0  0  0  0  0  0  0  0  0  0  0
   22.1050  -17.1624   -1.4370 C   0  0  0  0  0  0  0  0  0  0  0  0
   18.7869  -13.4269    0.4172 O   0  0  0  0  0  0  0  0  0  0  0  0
   14.0983  -12.9837   -1.6335 C   0  0  0  0  0  0  0  0  0  0  0  0
   13.6257  -15.7345   -2.2873 O   0  0  0  0  0  0  0  0  0  0  0  0
   12.4037  -15.3381   -1.6749 C   0  0  0  0  0  0  0  0  0  0  0  0
   22.5470  -15.1478   -0.0142 C   0  0  0  0  0  0  0  0  0  0  0  0
   21.9694  -17.2987    1.0790 C   0  0  0  0  0  0  0  0  0  0  0  0
   19.1689  -19.5295   -1.3822 O   0  0  0  0  0  0  0  0  0  0  0  0
   20.3278  -18.8956    0.2260 H   0  0  0  0  0  0  0  0  0  0  0  0
   16.6441  -12.6759   -0.7879 H   0  0  0  0  0  0  0  0  0  0  0  0
   15.6057  -17.3962   -1.9563 H   0  0  0  0  0  0  0  0  0  0  0  0
   19.7808  -15.1122   -2.1170 H   0  0  0  0  0  0  0  0  0  0  0  0
   20.7908  -14.1190   -0.9830 H   0  0  0  0  0  0  0  0  0  0  0  0
   17.7839  -18.1974   -1.4708 H   0  0  0  0  0  0  0  0  0  0  0  0
   19.8355  -15.8355    0.8387 H   0  0  0  0  0  0  0  0  0  0  0  0
   21.9873  -19.3336   -1.4094 H   0  0  0  0  0  0  0  0  0  0  0  0
   21.0323  -18.5404   -2.7329 H   0  0  0  0  0  0  0  0  0  0  0  0
   23.1883  -17.4010   -1.3749 H   0  0  0  0  0  0  0  0  0  0  0  0
   21.9223  -16.4911   -2.3032 H   0  0  0  0  0  0  0  0  0  0  0  0
   14.1701  -12.5217   -2.6414 H   0  0  0  0  0  0  0  0  0  0  0  0
   13.0899  -13.4317   -1.5026 H   0  0  0  0  0  0  0  0  0  0  0  0
   14.2634  -12.2061   -0.8571 H   0  0  0  0  0  0  0  0  0  0  0  0
   11.8088  -14.7340   -2.3931 H   0  0  0  0  0  0  0  0  0  0  0  0
   11.8259  -16.2413   -1.3833 H   0  0  0  0  0  0  0  0  0  0  0  0
   12.6230  -14.7292   -0.7717 H   0  0  0  0  0  0  0  0  0  0  0  0
   22.8824  -14.8185   -1.0210 H   0  0  0  0  0  0  0  0  0  0  0  0
   21.9403  -14.3440    0.4552 H   0  0  0  0  0  0  0  0  0  0  0  0
   23.4340  -15.3626    0.6196 H   0  0  0  0  0  0  0  0  0  0  0  0
   22.8267  -17.9730    0.8671 H   0  0  0  0  0  0  0  0  0  0  0  0
   22.2123  -16.6537    1.9505 H   0  0  0  0  0  0  0  0  0  0  0  0
   21.0676  -17.9067    1.3063 H   0  0  0  0  0  0  0  0  0  0  0  0
   18.8886  -20.3459   -0.8540 H   0  0  0  0  0  0  0  0  0  0  0  0
  2  1  2  0  0  0  0
  3  1  1  0  0  0  0
  4  2  1  0  0  0  0
  5  3  2  0  0  0  0
  6  4  2  0  0  0  0
  6  5  1  0  0  0  0
  7  1  1  0  0  0  0
  8  7  1  0  0  0  0
  9  2  1  0  0  0  0
 11  8  1  0  0  0  0
 10  9  2  0  0  0  0
 12 10  1  0  0  0  0
 11 10  1  0  0  0  0
 13 12  1  0  0  0  0
 14 11  1  0  0  0  0
 15 13  1  0  0  0  0
 15 14  1  0  0  0  0
  7 16  2  0  0  0  0
  5 17  1  0  0  0  0
  6 18  1  0  0  0  0
 18 19  1  0  0  0  0
 14 20  1  0  0  0  0
 14 21  1  0  0  0  0
 12 22  1  0  0  0  0
 23 12  1  0  0  0  0
 24  3  1  0  0  0  0
 25  4  1  0  0  0  0
 26  8  1  0  0  0  0
 27  8  1  0  0  0  0
 28  9  1  0  0  0  0
 29 11  1  0  0  0  0
 30 13  1  0  0  0  0
 31 13  1  0  0  0  0
 32 15  1  0  0  0  0
 33 15  1  0  0  0  0
 34 17  1  0  0  0  0
 35 17  1  0  0  0  0
 36 17  1  0  0  0  0
 37 19  1  0  0  0  0
 38 19  1  0  0  0  0
 39 19  1  0  0  0  0
 40 20  1  0  0  0  0
 41 20  1  0  0  0  0
 42 20  1  0  0  0  0
 43 21  1  0  0  0  0
 44 21  1  0  0  0  0
 45 21  1  0  0  0  0
 46 22  1  0  0  0  0
M  END
