
  ACD/Labs07101016293D

 35 37  0  0  0  0  0  0  0  0  1 V2000
   17.2256  -21.2727   -3.3098 C   0  0  0  0  0  0  0  0  0  0  0  0
   17.4490  -21.6491   -1.9887 C   0  0  0  0  0  0  0  0  0  0  0  0
   16.6090  -22.1486   -4.1863 C   0  0  0  0  0  0  0  0  0  0  0  0
   17.0636  -22.9053   -1.5499 C   0  0  0  0  0  0  0  0  0  0  0  0
   16.2214  -23.4036   -3.7440 C   0  0  0  0  0  0  0  0  0  0  0  0
   16.4498  -23.7826   -2.4292 C   0  0  0  0  0  0  0  0  0  0  0  0
   17.8476  -18.8731   -2.7079 C   0  0  0  0  0  0  0  0  0  0  0  0
   18.7197  -19.4352   -1.5975 C   0  0  0  0  0  0  0  0  0  0  0  0
   17.6498  -19.9298   -3.7626 C   0  0  0  0  0  0  0  0  0  0  0  0
   18.0897  -20.6977   -1.0500 C   0  0  0  0  0  0  0  0  0  0  0  0
   18.7462  -16.6129   -2.1892 C   0  0  0  0  0  0  0  0  0  0  0  0
   19.4623  -17.2374   -0.9640 C   0  0  0  0  0  0  0  0  0  0  0  0
   18.5315  -17.6527   -3.2959 C   0  0  0  0  0  0  0  0  0  0  0  0
   18.8365  -18.4653   -0.5594 O   0  0  0  0  0  0  0  0  0  0  0  0
   18.0786  -20.9092    0.1402 O   0  0  0  0  0  0  0  0  0  0  0  0
   17.8692  -19.6999   -4.9297 O   0  0  0  0  0  0  0  0  0  0  0  0
   17.7183  -17.0974   -4.3190 O   0  0  0  0  0  0  0  0  0  0  0  0
   19.3978  -16.2478    0.1987 C   0  0  0  0  0  0  0  0  0  0  0  0
   20.9325  -17.4990   -1.3129 C   0  0  0  0  0  0  0  0  0  0  0  0
   16.8520  -18.5756   -2.3046 H   0  0  0  0  0  0  0  0  0  0  0  0
   19.7302  -19.6755   -2.0010 H   0  0  0  0  0  0  0  0  0  0  0  0
   19.5158  -17.9494   -3.7260 H   0  0  0  0  0  0  0  0  0  0  0  0
   16.4261  -21.8457   -5.2394 H   0  0  0  0  0  0  0  0  0  0  0  0
   17.2459  -23.2081   -0.4966 H   0  0  0  0  0  0  0  0  0  0  0  0
   15.7260  -24.1081   -4.4458 H   0  0  0  0  0  0  0  0  0  0  0  0
   16.1406  -24.7908   -2.0798 H   0  0  0  0  0  0  0  0  0  0  0  0
   17.7573  -16.2171   -1.8733 H   0  0  0  0  0  0  0  0  0  0  0  0
   19.3659  -15.7837   -2.5925 H   0  0  0  0  0  0  0  0  0  0  0  0
   18.0726  -17.0263   -5.2643 H   0  0  0  0  0  0  0  0  0  0  0  0
   20.4252  -16.0461    0.5702 H   0  0  0  0  0  0  0  0  0  0  0  0
   18.9366  -15.2985   -0.1487 H   0  0  0  0  0  0  0  0  0  0  0  0
   18.7857  -16.6802    1.0190 H   0  0  0  0  0  0  0  0  0  0  0  0
   21.5544  -17.3923   -0.3985 H   0  0  0  0  0  0  0  0  0  0  0  0
   21.0395  -18.5292   -1.7153 H   0  0  0  0  0  0  0  0  0  0  0  0
   21.2678  -16.7648   -2.0765 H   0  0  0  0  0  0  0  0  0  0  0  0
  3  1  2  0  0  0  0
  4  2  2  0  0  0  0
  5  3  1  0  0  0  0
  6  4  1  0  0  0  0
  6  5  2  0  0  0  0
  9  7  1  0  0  0  0
 10  8  1  0  0  0  0
  1  9  1  0  0  0  0
  2 10  1  0  0  0  0
  2  1  1  0  0  0  0
 12 11  1  0  0  0  0
 13 11  1  0  0  0  0
 14 12  1  0  0  0  0
  7 13  1  0  0  0  0
  8 14  1  0  0  0  0
  8  7  1  0  0  0  0
 10 15  2  0  0  0  0
  9 16  2  0  0  0  0
 13 17  1  0  0  0  0
 12 18  1  0  0  0  0
 12 19  1  0  0  0  0
 20  7  1  0  0  0  0
 21  8  1  0  0  0  0
 22 13  1  0  0  0  0
 23  3  1  0  0  0  0
 24  4  1  0  0  0  0
 25  5  1  0  0  0  0
 26  6  1  0  0  0  0
 27 11  1  0  0  0  0
 28 11  1  0  0  0  0
 29 17  1  0  0  0  0
 30 18  1  0  0  0  0
 31 18  1  0  0  0  0
 32 18  1  0  0  0  0
 33 19  1  0  0  0  0
 34 19  1  0  0  0  0
 35 19  1  0  0  0  0
M  END
