
  ACD/Labs07111011253D

 39 42  0  0  0  0  0  0  0  0  1 V2000
   18.7557  -21.4475   -1.2675 C   0  0  0  0  0  0  0  0  0  0  0  0
   19.8260  -20.9581   -2.0135 C   0  0  0  0  0  0  0  0  0  0  0  0
   18.8461  -22.6798   -0.6407 C   0  0  0  0  0  0  0  0  0  0  0  0
   20.9801  -21.7222   -2.1166 C   0  0  0  0  0  0  0  0  0  0  0  0
   20.0017  -23.4338   -0.7492 C   0  0  0  0  0  0  0  0  0  0  0  0
   21.0694  -22.9534   -1.4877 C   0  0  0  0  0  0  0  0  0  0  0  0
   17.8480  -19.1749   -1.1826 C   0  0  0  0  0  0  0  0  0  0  0  0
   18.5037  -18.8598   -2.5562 C   0  0  0  0  0  0  0  0  0  0  0  0
   17.4869  -20.6521   -1.1230 C   0  0  0  0  0  0  0  0  0  0  0  0
   19.8037  -19.6100   -2.7614 C   0  0  0  0  0  0  0  0  0  0  0  0
   16.6565  -16.9006   -1.4982 C   0  0  0  0  0  0  0  0  0  0  0  0
   18.1473  -16.5343   -1.6106 C   0  0  0  0  0  0  0  0  0  0  0  0
   16.6050  -18.3347   -1.0328 C   0  0  0  0  0  0  0  0  0  0  0  0
   18.8907  -17.4083   -2.6556 C   0  0  0  0  0  0  0  0  0  0  0  0
   22.0338  -21.2629   -2.8451 O   0  0  0  0  0  0  0  0  0  0  0  0
   17.7957  -23.1487    0.0846 O   0  0  0  0  0  0  0  0  0  0  0  0
   15.5960  -18.7950   -0.5508 O   0  0  0  0  0  0  0  0  0  0  0  0
   18.8299  -18.8472   -0.0343 C   0  0  0  0  0  0  0  0  0  0  0  0
   20.8475  -18.7511   -2.2759 O   0  0  0  0  0  0  0  0  0  0  0  0
   20.4121  -17.3609   -2.4123 C   0  0  0  0  0  0  0  0  0  0  0  0
   18.5586  -16.9000   -3.9404 O   0  0  0  0  0  0  0  0  0  0  0  0
   17.7549  -19.1432   -3.3301 H   0  0  0  0  0  0  0  0  0  0  0  0
   19.9409  -19.8328   -3.8433 H   0  0  0  0  0  0  0  0  0  0  0  0
   20.0722  -24.4214   -0.2452 H   0  0  0  0  0  0  0  0  0  0  0  0
   21.9984  -23.5563   -1.5757 H   0  0  0  0  0  0  0  0  0  0  0  0
   16.7905  -20.9077   -1.9500 H   0  0  0  0  0  0  0  0  0  0  0  0
   17.0080  -20.8881   -0.1486 H   0  0  0  0  0  0  0  0  0  0  0  0
   16.1475  -16.2456   -0.7592 H   0  0  0  0  0  0  0  0  0  0  0  0
   16.1550  -16.8060   -2.4850 H   0  0  0  0  0  0  0  0  0  0  0  0
   18.2281  -15.4674   -1.9100 H   0  0  0  0  0  0  0  0  0  0  0  0
   18.6229  -16.6777   -0.6169 H   0  0  0  0  0  0  0  0  0  0  0  0
   22.8751  -21.8198   -2.9245 H   0  0  0  0  0  0  0  0  0  0  0  0
   17.8595  -24.0480    0.5442 H   0  0  0  0  0  0  0  0  0  0  0  0
   19.8272  -18.6030   -0.4587 H   0  0  0  0  0  0  0  0  0  0  0  0
   18.4489  -17.9761    0.5409 H   0  0  0  0  0  0  0  0  0  0  0  0
   18.9191  -19.7268    0.6386 H   0  0  0  0  0  0  0  0  0  0  0  0
   20.9424  -16.8927   -3.2690 H   0  0  0  0  0  0  0  0  0  0  0  0
   20.6535  -16.8077   -1.4796 H   0  0  0  0  0  0  0  0  0  0  0  0
   19.2888  -16.5682   -4.5576 H   0  0  0  0  0  0  0  0  0  0  0  0
  3  1  1  0  0  0  0
  4  2  1  0  0  0  0
  5  3  2  0  0  0  0
  6  4  2  0  0  0  0
  6  5  1  0  0  0  0
  9  7  1  0  0  0  0
 10  8  1  0  0  0  0
  1  9  1  0  0  0  0
  2 10  1  0  0  0  0
  2  1  2  0  0  0  0
 12 11  1  0  0  0  0
 13 11  1  0  0  0  0
 14 12  1  0  0  0  0
  7 13  1  0  0  0  0
  8 14  1  0  0  0  0
  8  7  1  0  0  0  0
  4 15  1  0  0  0  0
  3 16  1  0  0  0  0
 13 17  2  0  0  0  0
  7 18  1  0  0  0  0
 10 19  1  0  0  0  0
 19 20  1  0  0  0  0
 14 20  1  0  0  0  0
 14 21  1  0  0  0  0
 22  8  1  0  0  0  0
 23 10  1  0  0  0  0
 24  5  1  0  0  0  0
 25  6  1  0  0  0  0
 26  9  1  0  0  0  0
 27  9  1  0  0  0  0
 28 11  1  0  0  0  0
 29 11  1  0  0  0  0
 30 12  1  0  0  0  0
 31 12  1  0  0  0  0
 32 15  1  0  0  0  0
 33 16  1  0  0  0  0
 34 18  1  0  0  0  0
 35 18  1  0  0  0  0
 36 18  1  0  0  0  0
 37 20  1  0  0  0  0
 38 20  1  0  0  0  0
 39 21  1  0  0  0  0
M  END
