
  ACD/Labs08311009473D

 49 52  0  0  0  0  0  0  0  0  1 V2000
   17.3277  -15.4678   -2.6522 C   0  0  0  0  0  0  0  0  0  0  0  0
   16.8717  -16.1959   -1.5435 C   0  0  0  0  0  0  0  0  0  0  0  0
   16.4141  -14.7184   -3.3815 C   0  0  0  0  0  0  0  0  0  0  0  0
   15.5243  -16.1580   -1.2165 C   0  0  0  0  0  0  0  0  0  0  0  0
   15.0740  -14.6863   -3.0440 C   0  0  0  0  0  0  0  0  0  0  0  0
   14.6248  -15.4137   -1.9587 C   0  0  0  0  0  0  0  0  0  0  0  0
   18.7319  -15.4186   -3.1689 C   0  0  0  0  0  0  0  0  0  0  0  0
   19.9687  -15.9122   -2.4342 C   0  0  0  0  0  0  0  0  0  0  0  0
   17.7336  -17.0812   -0.6526 C   0  0  0  0  0  0  0  0  0  0  0  0
   18.9948  -17.0219   -0.4159 C   0  0  0  0  0  0  0  0  0  0  0  0
   19.8625  -15.8036   -0.9150 C   0  0  0  0  0  0  0  0  0  0  0  0
   19.9607  -18.2115   -0.6833 C   0  0  0  0  0  0  0  0  0  0  0  0
   21.2360  -18.2095    0.1352 C   0  0  0  0  0  0  0  0  0  0  0  0
   21.3053  -15.7810   -0.2735 C   0  0  0  0  0  0  0  0  0  0  0  0
   22.0644  -17.0949   -0.4579 C   0  0  0  0  0  0  0  0  0  0  0  0
   14.1047  -13.8674   -3.8623 C   0  0  0  0  0  0  0  0  0  0  0  0
   13.3060  -15.4038   -1.6272 O   0  0  0  0  0  0  0  0  0  0  0  0
   22.1437  -14.6675   -0.9148 C   0  0  0  0  0  0  0  0  0  0  0  0
   21.2075  -15.5066    1.2367 C   0  0  0  0  0  0  0  0  0  0  0  0
   19.1721  -14.4795   -0.5150 C   0  0  0  0  0  0  0  0  0  0  0  0
   12.4208  -16.3439   -2.2234 C   0  0  0  0  0  0  0  0  0  0  0  0
   18.8988  -14.9297   -4.2630 O   0  0  0  0  0  0  0  0  0  0  0  0
   18.1430  -16.8449    0.7658 O   0  0  0  0  0  0  0  0  0  0  0  0
   17.2105  -18.0092   -0.9612 H   0  0  0  0  0  0  0  0  0  0  0  0
   16.7639  -14.1300   -4.2566 H   0  0  0  0  0  0  0  0  0  0  0  0
   15.1577  -16.7362   -0.3415 H   0  0  0  0  0  0  0  0  0  0  0  0
   20.1311  -16.9784   -2.7009 H   0  0  0  0  0  0  0  0  0  0  0  0
   20.8389  -15.3090   -2.7707 H   0  0  0  0  0  0  0  0  0  0  0  0
   19.4253  -19.1590   -0.4603 H   0  0  0  0  0  0  0  0  0  0  0  0
   20.2545  -18.1947   -1.7546 H   0  0  0  0  0  0  0  0  0  0  0  0
   21.0166  -18.0073    1.2054 H   0  0  0  0  0  0  0  0  0  0  0  0
   21.7648  -19.1822    0.0424 H   0  0  0  0  0  0  0  0  0  0  0  0
   23.0444  -17.0436    0.0630 H   0  0  0  0  0  0  0  0  0  0  0  0
   22.2289  -17.2900   -1.5392 H   0  0  0  0  0  0  0  0  0  0  0  0
   14.0035  -14.3158   -4.8738 H   0  0  0  0  0  0  0  0  0  0  0  0
   13.1133  -13.8576   -3.3608 H   0  0  0  0  0  0  0  0  0  0  0  0
   14.4850  -12.8275   -3.9547 H   0  0  0  0  0  0  0  0  0  0  0  0
   22.5655  -15.0295   -1.8769 H   0  0  0  0  0  0  0  0  0  0  0  0
   21.5002  -13.7814   -1.1028 H   0  0  0  0  0  0  0  0  0  0  0  0
   22.9721  -14.3869   -0.2296 H   0  0  0  0  0  0  0  0  0  0  0  0
   21.4160  -16.4430    1.7972 H   0  0  0  0  0  0  0  0  0  0  0  0
   21.9514  -14.7316    1.5208 H   0  0  0  0  0  0  0  0  0  0  0  0
   20.1848  -15.1481    1.4822 H   0  0  0  0  0  0  0  0  0  0  0  0
   18.6378  -14.0605   -1.3945 H   0  0  0  0  0  0  0  0  0  0  0  0
   18.4448  -14.6737    0.3021 H   0  0  0  0  0  0  0  0  0  0  0  0
   19.9378  -13.7536   -0.1667 H   0  0  0  0  0  0  0  0  0  0  0  0
   12.9571  -16.9037   -3.0193 H   0  0  0  0  0  0  0  0  0  0  0  0
   12.0603  -17.0549   -1.4494 H   0  0  0  0  0  0  0  0  0  0  0  0
   11.5552  -15.8070   -2.6673 H   0  0  0  0  0  0  0  0  0  0  0  0
  2  1  2  0  0  0  0
  3  1  1  0  0  0  0
  4  2  1  0  0  0  0
  5  3  2  0  0  0  0
  6  4  2  0  0  0  0
  6  5  1  0  0  0  0
  7  1  1  0  0  0  0
  8  7  1  0  0  0  0
  9  2  1  0  0  0  0
 11  8  1  0  0  0  0
 12 10  1  0  0  0  0
 11 10  1  0  0  0  0
 13 12  1  0  0  0  0
 14 11  1  0  0  0  0
 15 13  1  0  0  0  0
 15 14  1  0  0  0  0
  5 16  1  0  0  0  0
  6 17  1  0  0  0  0
 14 18  1  0  0  0  0
 14 19  1  0  0  0  0
 11 20  1  0  0  0  0
 17 21  1  0  0  0  0
  7 22  2  0  0  0  0
 23  9  1  0  0  0  0
 10  9  1  0  0  0  0
 10 23  1  0  0  0  0
 24  9  1  0  0  0  0
 25  3  1  0  0  0  0
 26  4  1  0  0  0  0
 27  8  1  0  0  0  0
 28  8  1  0  0  0  0
 29 12  1  0  0  0  0
 30 12  1  0  0  0  0
 31 13  1  0  0  0  0
 32 13  1  0  0  0  0
 33 15  1  0  0  0  0
 34 15  1  0  0  0  0
 35 16  1  0  0  0  0
 36 16  1  0  0  0  0
 37 16  1  0  0  0  0
 38 18  1  0  0  0  0
 39 18  1  0  0  0  0
 40 18  1  0  0  0  0
 41 19  1  0  0  0  0
 42 19  1  0  0  0  0
 43 19  1  0  0  0  0
 44 20  1  0  0  0  0
 45 20  1  0  0  0  0
 46 20  1  0  0  0  0
 47 21  1  0  0  0  0
 48 21  1  0  0  0  0
 49 21  1  0  0  0  0
M  END
