
  ACD/Labs08291019383D

 57 59  0  0  0  0  0  0  0  0  1 V2000
   17.2420  -16.2143   -0.3540 C   0  0  0  0  0  0  0  0  0  0  0  0
   17.5900  -17.5548   -0.2752 C   0  0  0  0  0  0  0  0  0  0  0  0
   15.9315  -15.8217   -0.1261 C   0  0  0  0  0  0  0  0  0  0  0  0
   16.6223  -18.5002    0.0308 C   0  0  0  0  0  0  0  0  0  0  0  0
   14.9675  -16.7698    0.1778 C   0  0  0  0  0  0  0  0  0  0  0  0
   15.3127  -18.1093    0.2557 C   0  0  0  0  0  0  0  0  0  0  0  0
   19.0137  -18.0190   -0.5239 C   0  0  0  0  0  0  0  0  0  0  0  0
   20.0577  -16.9205   -0.3880 C   0  0  0  0  0  0  0  0  0  0  0  0
   21.3743  -17.1855   -0.6460 O   0  0  0  0  0  0  0  0  0  0  0  0
   21.7889  -18.4708   -1.0954 C   0  0  0  0  0  0  0  0  0  0  0  0
   23.1526  -18.3906   -1.7647 C   0  0  0  0  0  0  0  0  0  0  0  0
   21.9080  -19.4165    0.0740 C   0  0  0  0  0  0  0  0  0  0  0  0
   23.7949  -19.6844   -1.4212 N   0  0  0  0  0  0  0  0  0  0  0  0
   22.8699  -20.4365   -0.5420 C   0  0  0  0  0  0  0  0  0  0  0  0
   25.4454  -17.9657   -1.0154 C   0  0  0  0  0  0  0  0  0  0  0  0
   25.0607  -19.4139   -0.7013 C   0  0  0  0  0  0  0  0  0  0  0  0
   24.0647  -17.3644   -1.1130 C   0  0  0  0  0  0  0  0  0  0  0  0
   24.0966  -16.0836   -1.9596 C   0  0  0  0  0  0  0  0  0  0  0  0
   24.9806  -15.0920   -1.4466 O   0  0  0  0  0  0  0  0  0  0  0  0
   26.3287  -15.2212   -1.5820 C   0  0  0  0  0  0  0  0  0  0  0  0
   27.1416  -14.0915   -2.1629 C   0  0  0  0  0  0  0  0  0  0  0  0
   28.6148  -14.5152   -2.2481 C   0  0  0  0  0  0  0  0  0  0  0  0
   29.4257  -13.4520   -2.9948 C   0  0  0  0  0  0  0  0  0  0  0  0
   26.6134  -13.7605   -3.5652 C   0  0  0  0  0  0  0  0  0  0  0  0
   27.0303  -12.9443   -1.3313 O   0  0  0  0  0  0  0  0  0  0  0  0
   28.7052  -15.7500   -2.9448 O   0  0  0  0  0  0  0  0  0  0  0  0
   26.8732  -16.2462   -1.2403 O   0  0  0  0  0  0  0  0  0  0  0  0
   19.7252  -15.8112   -0.0398 O   0  0  0  0  0  0  0  0  0  0  0  0
   21.0342  -18.8470   -1.8237 H   0  0  0  0  0  0  0  0  0  0  0  0
   23.6921  -17.1126   -0.0930 H   0  0  0  0  0  0  0  0  0  0  0  0
   29.0236  -14.6308   -1.2192 H   0  0  0  0  0  0  0  0  0  0  0  0
   18.0140  -15.4542   -0.5999 H   0  0  0  0  0  0  0  0  0  0  0  0
   15.6540  -14.7477   -0.1869 H   0  0  0  0  0  0  0  0  0  0  0  0
   16.8971  -19.5747    0.0960 H   0  0  0  0  0  0  0  0  0  0  0  0
   13.9173  -16.4559    0.3590 H   0  0  0  0  0  0  0  0  0  0  0  0
   14.5398  -18.8695    0.4985 H   0  0  0  0  0  0  0  0  0  0  0  0
   19.2513  -18.8199    0.2084 H   0  0  0  0  0  0  0  0  0  0  0  0
   19.0705  -18.4300   -1.5545 H   0  0  0  0  0  0  0  0  0  0  0  0
   23.0286  -18.1648   -2.8454 H   0  0  0  0  0  0  0  0  0  0  0  0
   22.3402  -18.9161    0.9668 H   0  0  0  0  0  0  0  0  0  0  0  0
   20.9287  -19.8687    0.3401 H   0  0  0  0  0  0  0  0  0  0  0  0
   23.4520  -20.9552    0.2494 H   0  0  0  0  0  0  0  0  0  0  0  0
   22.3141  -21.1860   -1.1451 H   0  0  0  0  0  0  0  0  0  0  0  0
   26.0390  -17.5026   -0.1985 H   0  0  0  0  0  0  0  0  0  0  0  0
   26.0010  -17.8776   -1.9735 H   0  0  0  0  0  0  0  0  0  0  0  0
   24.9038  -19.5520    0.3899 H   0  0  0  0  0  0  0  0  0  0  0  0
   25.8460  -20.1157   -1.0548 H   0  0  0  0  0  0  0  0  0  0  0  0
   24.4375  -16.3153   -2.9913 H   0  0  0  0  0  0  0  0  0  0  0  0
   23.0856  -15.6245   -1.9973 H   0  0  0  0  0  0  0  0  0  0  0  0
   29.2678  -13.5668   -4.0886 H   0  0  0  0  0  0  0  0  0  0  0  0
   29.0921  -12.4411   -2.6766 H   0  0  0  0  0  0  0  0  0  0  0  0
   30.5047  -13.5781   -2.7613 H   0  0  0  0  0  0  0  0  0  0  0  0
   26.9459  -14.5434   -4.2801 H   0  0  0  0  0  0  0  0  0  0  0  0
   25.5030  -13.7261   -3.5437 H   0  0  0  0  0  0  0  0  0  0  0  0
   27.0099  -12.7734   -3.8864 H   0  0  0  0  0  0  0  0  0  0  0  0
   26.6463  -12.0850   -1.7032 H   0  0  0  0  0  0  0  0  0  0  0  0
   29.0998  -16.5616   -2.4868 H   0  0  0  0  0  0  0  0  0  0  0  0
  2  1  1  0  0  0  0
  3  1  2  0  0  0  0
  4  2  2  0  0  0  0
  5  3  1  0  0  0  0
  6  4  1  0  0  0  0
  6  5  2  0  0  0  0
  2  7  1  0  0  0  0
  7  8  1  0  0  0  0
  8  9  1  0  0  0  0
 11 10  1  0  0  0  0
 12 10  1  0  0  0  0
 14 12  1  0  0  0  0
  9 10  1  0  0  0  0
 16 15  1  0  0  0  0
 17 15  1  0  0  0  0
 11 17  1  0  0  0  0
 13 11  1  0  0  0  0
 17 18  1  0  0  0  0
 18 19  1  0  0  0  0
 19 20  1  0  0  0  0
 20 21  1  0  0  0  0
 21 22  1  0  0  0  0
 22 23  1  0  0  0  0
 21 24  1  0  0  0  0
 21 25  1  0  0  0  0
 22 26  1  0  0  0  0
 20 27  2  0  0  0  0
  8 28  2  0  0  0  0
 14 13  1  0  0  0  0
 13 16  1  0  0  0  0
 29 10  1  0  0  0  0
 30 17  1  0  0  0  0
 31 22  1  0  0  0  0
 32  1  1  0  0  0  0
 33  3  1  0  0  0  0
 34  4  1  0  0  0  0
 35  5  1  0  0  0  0
 36  6  1  0  0  0  0
 37  7  1  0  0  0  0
 38  7  1  0  0  0  0
 39 11  1  0  0  0  0
 40 12  1  0  0  0  0
 41 12  1  0  0  0  0
 42 14  1  0  0  0  0
 43 14  1  0  0  0  0
 44 15  1  0  0  0  0
 45 15  1  0  0  0  0
 46 16  1  0  0  0  0
 47 16  1  0  0  0  0
 48 18  1  0  0  0  0
 49 18  1  0  0  0  0
 50 23  1  0  0  0  0
 51 23  1  0  0  0  0
 52 23  1  0  0  0  0
 53 24  1  0  0  0  0
 54 24  1  0  0  0  0
 55 24  1  0  0  0  0
 56 25  1  0  0  0  0
 57 26  1  0  0  0  0
M  END
