
  ACD/Labs08291008383D

 39 40  0  0  0  0  0  0  0  0  1 V2000
   13.1445  -15.1988   -0.0318 C   0  0  0  0  0  0  0  0  0  0  0  0
   14.4563  -14.4180   -0.0556 C   0  0  0  0  0  0  0  0  0  0  0  0
   13.2019  -16.6596    0.3433 C   0  0  0  0  0  0  0  0  0  0  0  0
   15.6212  -15.3451   -0.4173 C   0  0  0  0  0  0  0  0  0  0  0  0
   14.1159  -17.3298   -0.6850 C   0  0  0  0  0  0  0  0  0  0  0  0
   15.4769  -16.6527   -0.7034 C   0  0  0  0  0  0  0  0  0  0  0  0
   11.8481  -13.1621   -0.7627 C   0  0  0  0  0  0  0  0  0  0  0  0
   13.1522  -12.3714   -0.6156 C   0  0  0  0  0  0  0  0  0  0  0  0
   11.9605  -14.6258   -0.3412 C   0  0  0  0  0  0  0  0  0  0  0  0
   14.3213  -13.2541   -1.0525 C   0  0  0  0  0  0  0  0  0  0  0  0
   16.7009  -17.4685   -1.0452 C   0  0  0  0  0  0  0  0  0  0  0  0
   10.6902  -15.4483   -0.2882 C   0  0  0  0  0  0  0  0  0  0  0  0
   15.6206  -12.4173   -1.0760 C   0  0  0  0  0  0  0  0  0  0  0  0
   16.7482  -13.1653   -1.7963 C   0  0  0  0  0  0  0  0  0  0  0  0
   15.4007  -11.1044   -1.8360 C   0  0  0  0  0  0  0  0  0  0  0  0
   14.1283  -13.6585   -2.0729 H   0  0  0  0  0  0  0  0  0  0  0  0
   14.6695  -14.0064    0.9541 H   0  0  0  0  0  0  0  0  0  0  0  0
   13.6183  -16.7730    1.3671 H   0  0  0  0  0  0  0  0  0  0  0  0
   12.1834  -17.1019    0.3061 H   0  0  0  0  0  0  0  0  0  0  0  0
   16.6864  -15.0355   -0.4787 H   0  0  0  0  0  0  0  0  0  0  0  0
   14.2461  -18.4008   -0.4199 H   0  0  0  0  0  0  0  0  0  0  0  0
   13.6566  -17.2505   -1.6935 H   0  0  0  0  0  0  0  0  0  0  0  0
   11.0709  -12.6774   -0.1339 H   0  0  0  0  0  0  0  0  0  0  0  0
   11.5362  -13.1296   -1.8285 H   0  0  0  0  0  0  0  0  0  0  0  0
   13.1126  -11.4639   -1.2552 H   0  0  0  0  0  0  0  0  0  0  0  0
   13.2893  -12.0717    0.4454 H   0  0  0  0  0  0  0  0  0  0  0  0
   16.6572  -17.7712   -2.1134 H   0  0  0  0  0  0  0  0  0  0  0  0
   17.6128  -16.8583   -0.8703 H   0  0  0  0  0  0  0  0  0  0  0  0
   16.7317  -18.3756   -0.4043 H   0  0  0  0  0  0  0  0  0  0  0  0
   10.3626  -15.6902   -1.3219 H   0  0  0  0  0  0  0  0  0  0  0  0
   10.8823  -16.3901    0.2693 H   0  0  0  0  0  0  0  0  0  0  0  0
    9.8946  -14.8675    0.2260 H   0  0  0  0  0  0  0  0  0  0  0  0
   15.9046  -12.2202   -0.0201 H   0  0  0  0  0  0  0  0  0  0  0  0
   16.4636  -13.3303   -2.8575 H   0  0  0  0  0  0  0  0  0  0  0  0
   17.6798  -12.5614   -1.7523 H   0  0  0  0  0  0  0  0  0  0  0  0
   16.9168  -14.1457   -1.3014 H   0  0  0  0  0  0  0  0  0  0  0  0
   15.1613  -11.3272   -2.8978 H   0  0  0  0  0  0  0  0  0  0  0  0
   14.5571  -10.5470   -1.3752 H   0  0  0  0  0  0  0  0  0  0  0  0
   16.3245  -10.4889   -1.7861 H   0  0  0  0  0  0  0  0  0  0  0  0
  3  1  1  0  0  0  0
  4  2  1  0  0  0  0
  5  3  1  0  0  0  0
  6  4  2  0  0  0  0
  6  5  1  0  0  0  0
  8  7  1  0  0  0  0
  9  7  1  0  0  0  0
 10  8  1  0  0  0  0
  1  9  2  0  0  0  0
  2 10  1  0  0  0  0
  2  1  1  0  0  0  0
  6 11  1  0  0  0  0
  9 12  1  0  0  0  0
 10 13  1  0  0  0  0
 13 14  1  0  0  0  0
 13 15  1  0  0  0  0
 16 10  1  0  0  0  0
 17  2  1  0  0  0  0
 18  3  1  0  0  0  0
 19  3  1  0  0  0  0
 20  4  1  0  0  0  0
 21  5  1  0  0  0  0
 22  5  1  0  0  0  0
 23  7  1  0  0  0  0
 24  7  1  0  0  0  0
 25  8  1  0  0  0  0
 26  8  1  0  0  0  0
 27 11  1  0  0  0  0
 28 11  1  0  0  0  0
 29 11  1  0  0  0  0
 30 12  1  0  0  0  0
 31 12  1  0  0  0  0
 32 12  1  0  0  0  0
 33 13  1  0  0  0  0
 34 14  1  0  0  0  0
 35 14  1  0  0  0  0
 36 14  1  0  0  0  0
 37 15  1  0  0  0  0
 38 15  1  0  0  0  0
 39 15  1  0  0  0  0
M  END
