
  ACD/Labs08231023233D

 74 78  0  0  0  0  0  0  0  0  1 V2000
   12.3850  -13.7772   -2.0117 C   0  0  0  0  0  0  0  0  0  0  0  0
   12.4646  -15.1905   -2.4333 C   0  0  0  0  0  0  0  0  0  0  0  0
   11.1964  -13.1432   -2.0271 C   0  0  0  0  0  0  0  0  0  0  0  0
   11.2055  -15.9618   -2.6233 C   0  0  0  0  0  0  0  0  0  0  0  0
    9.9767  -13.8511   -2.4487 C   0  0  0  0  0  0  0  0  0  0  0  0
   10.0242  -15.3165   -2.6330 C   0  0  0  0  0  0  0  0  0  0  0  0
   14.9180  -13.7304   -1.9780 C   0  0  0  0  0  0  0  0  0  0  0  0
   14.9102  -14.9794   -2.4846 C   0  0  0  0  0  0  0  0  0  0  0  0
   13.6155  -13.0188   -1.5326 C   0  0  0  0  0  0  0  0  0  0  0  0
   13.6618  -15.7530   -2.6588 C   0  0  0  0  0  0  0  0  0  0  0  0
   16.0892  -11.5228   -2.3271 C   0  0  0  0  0  0  0  0  0  0  0  0
   16.2523  -12.9705   -1.7910 C   0  0  0  0  0  0  0  0  0  0  0  0
   14.8455  -10.8655   -1.7080 C   0  0  0  0  0  0  0  0  0  0  0  0
   13.5881  -11.6110   -2.1282 C   0  0  0  0  0  0  0  0  0  0  0  0
   18.6815  -11.3752   -2.3446 C   0  0  0  0  0  0  0  0  0  0  0  0
   18.4109  -12.6598   -3.1704 C   0  0  0  0  0  0  0  0  0  0  0  0
   17.3286  -10.7173   -1.9447 C   0  0  0  0  0  0  0  0  0  0  0  0
   17.4043  -13.6924   -2.5634 C   0  0  0  0  0  0  0  0  0  0  0  0
   19.5739   -8.9761   -2.6066 C   0  0  0  0  0  0  0  0  0  0  0  0
   19.5190  -10.3843   -3.2024 C   0  0  0  0  0  0  0  0  0  0  0  0
   18.3678   -8.4426   -1.8659 C   0  0  0  0  0  0  0  0  0  0  0  0
   17.1450   -9.2357   -2.2875 C   0  0  0  0  0  0  0  0  0  0  0  0
    8.9450  -13.2407   -2.6267 O   0  0  0  0  0  0  0  0  0  0  0  0
    8.8698  -16.0104   -2.8135 O   0  0  0  0  0  0  0  0  0  0  0  0
   11.2389  -17.4627   -2.8200 C   0  0  0  0  0  0  0  0  0  0  0  0
   13.5870  -12.9480    0.0000 C   0  0  0  0  0  0  0  0  0  0  0  0
   16.6080  -12.9382   -0.2957 C   0  0  0  0  0  0  0  0  0  0  0  0
   15.9270  -11.5484   -3.8633 C   0  0  0  0  0  0  0  0  0  0  0  0
   19.4606  -11.7342   -1.0742 C   0  0  0  0  0  0  0  0  0  0  0  0
   18.5969   -8.5829   -0.3549 C   0  0  0  0  0  0  0  0  0  0  0  0
   18.1474   -6.9867   -2.1973 C   0  0  0  0  0  0  0  0  0  0  0  0
   17.0202   -6.5813   -2.3719 O   0  0  0  0  0  0  0  0  0  0  0  0
   19.1902   -6.1227   -2.2778 O   0  0  0  0  0  0  0  0  0  0  0  0
   18.9158   -4.7461   -2.4951 C   0  0  0  0  0  0  0  0  0  0  0  0
   16.8440  -14.4558   -3.6207 O   0  0  0  0  0  0  0  0  0  0  0  0
   20.5610   -8.2883   -2.7445 O   0  0  0  0  0  0  0  0  0  0  0  0
   17.9491  -14.3547   -1.8530 H   0  0  0  0  0  0  0  0  0  0  0  0
   11.2211  -12.0801   -1.7054 H   0  0  0  0  0  0  0  0  0  0  0  0
   15.9166  -15.3650   -2.7542 H   0  0  0  0  0  0  0  0  0  0  0  0
   13.6211  -16.8167   -2.9770 H   0  0  0  0  0  0  0  0  0  0  0  0
   14.9273  -10.8890   -0.6003 H   0  0  0  0  0  0  0  0  0  0  0  0
   14.7739   -9.8117   -2.0524 H   0  0  0  0  0  0  0  0  0  0  0  0
   13.5496  -11.6753   -3.2367 H   0  0  0  0  0  0  0  0  0  0  0  0
   12.6939  -11.0660   -1.7572 H   0  0  0  0  0  0  0  0  0  0  0  0
   18.0159  -12.3416   -4.1589 H   0  0  0  0  0  0  0  0  0  0  0  0
   19.3847  -13.1763   -3.3090 H   0  0  0  0  0  0  0  0  0  0  0  0
   17.3978  -10.7351   -0.8360 H   0  0  0  0  0  0  0  0  0  0  0  0
   20.5586  -10.7676   -3.2837 H   0  0  0  0  0  0  0  0  0  0  0  0
   19.0688  -10.3153   -4.2157 H   0  0  0  0  0  0  0  0  0  0  0  0
   17.0006   -9.1247   -3.3835 H   0  0  0  0  0  0  0  0  0  0  0  0
   16.2543   -8.8402   -1.7541 H   0  0  0  0  0  0  0  0  0  0  0  0
    7.9827  -15.5234   -2.8214 H   0  0  0  0  0  0  0  0  0  0  0  0
   11.2440  -17.6933   -3.9069 H   0  0  0  0  0  0  0  0  0  0  0  0
   12.1560  -17.8772   -2.3493 H   0  0  0  0  0  0  0  0  0  0  0  0
   10.3411  -17.9176   -2.3493 H   0  0  0  0  0  0  0  0  0  0  0  0
   13.1895  -11.9602    0.3174 H   0  0  0  0  0  0  0  0  0  0  0  0
   12.9331  -13.7546    0.3955 H   0  0  0  0  0  0  0  0  0  0  0  0
   14.6173  -13.0770    0.3955 H   0  0  0  0  0  0  0  0  0  0  0  0
   17.7084  -12.8383   -0.1793 H   0  0  0  0  0  0  0  0  0  0  0  0
   16.1046  -12.0725    0.1857 H   0  0  0  0  0  0  0  0  0  0  0  0
   16.2688  -13.8804    0.1857 H   0  0  0  0  0  0  0  0  0  0  0  0
   16.9171  -11.3917   -4.3426 H   0  0  0  0  0  0  0  0  0  0  0  0
   15.5162  -12.5325   -4.1756 H   0  0  0  0  0  0  0  0  0  0  0  0
   15.2323  -10.7394   -4.1756 H   0  0  0  0  0  0  0  0  0  0  0  0
   20.4372  -12.1841   -1.3539 H   0  0  0  0  0  0  0  0  0  0  0  0
   19.6346  -10.8149   -0.4748 H   0  0  0  0  0  0  0  0  0  0  0  0
   18.8749  -12.4637   -0.4748 H   0  0  0  0  0  0  0  0  0  0  0  0
   19.5317   -9.1555   -0.1740 H   0  0  0  0  0  0  0  0  0  0  0  0
   18.6869   -7.5736    0.1010 H   0  0  0  0  0  0  0  0  0  0  0  0
   17.7387   -9.1216    0.1010 H   0  0  0  0  0  0  0  0  0  0  0  0
   18.8756   -4.5447   -3.5871 H   0  0  0  0  0  0  0  0  0  0  0  0
   17.9384   -4.4864   -2.0346 H   0  0  0  0  0  0  0  0  0  0  0  0
   19.7188   -4.1315   -2.0346 H   0  0  0  0  0  0  0  0  0  0  0  0
   16.9730  -15.4592   -3.6438 H   0  0  0  0  0  0  0  0  0  0  0  0
  3  1  2  0  0  0  0
  4  2  1  0  0  0  0
  5  3  1  0  0  0  0
  6  4  2  0  0  0  0
  6  5  1  0  0  0  0
  8  7  2  0  0  0  0
  9  7  1  0  0  0  0
 10  8  1  0  0  0  0
  1  9  1  0  0  0  0
  2 10  2  0  0  0  0
  2  1  1  0  0  0  0
 13 11  1  0  0  0  0
  7 12  1  0  0  0  0
 14 13  1  0  0  0  0
  9 14  1  0  0  0  0
 16 15  1  0  0  0  0
 18 16  1  0  0  0  0
 11 17  1  0  0  0  0
 12 18  1  0  0  0  0
 12 11  1  0  0  0  0
 20 19  1  0  0  0  0
 21 19  1  0  0  0  0
 15 20  1  0  0  0  0
 22 21  1  0  0  0  0
 17 15  1  0  0  0  0
 17 22  1  0  0  0  0
 23  5  2  0  0  0  0
  6 24  1  0  0  0  0
  4 25  1  0  0  0  0
  9 26  1  0  0  0  0
 12 27  1  0  0  0  0
 11 28  1  0  0  0  0
 15 29  1  0  0  0  0
 21 30  1  0  0  0  0
 32 31  2  0  0  0  0
 33 31  1  0  0  0  0
 34 33  1  0  0  0  0
 21 31  1  0  0  0  0
 18 35  1  0  0  0  0
 19 36  2  0  0  0  0
 37 18  1  0  0  0  0
 38  3  1  0  0  0  0
 39  8  1  0  0  0  0
 40 10  1  0  0  0  0
 41 13  1  0  0  0  0
 42 13  1  0  0  0  0
 43 14  1  0  0  0  0
 44 14  1  0  0  0  0
 45 16  1  0  0  0  0
 46 16  1  0  0  0  0
 47 17  1  0  0  0  0
 48 20  1  0  0  0  0
 49 20  1  0  0  0  0
 50 22  1  0  0  0  0
 51 22  1  0  0  0  0
 52 24  1  0  0  0  0
 53 25  1  0  0  0  0
 54 25  1  0  0  0  0
 55 25  1  0  0  0  0
 56 26  1  0  0  0  0
 57 26  1  0  0  0  0
 58 26  1  0  0  0  0
 59 27  1  0  0  0  0
 60 27  1  0  0  0  0
 61 27  1  0  0  0  0
 62 28  1  0  0  0  0
 63 28  1  0  0  0  0
 64 28  1  0  0  0  0
 65 29  1  0  0  0  0
 66 29  1  0  0  0  0
 67 29  1  0  0  0  0
 68 30  1  0  0  0  0
 69 30  1  0  0  0  0
 70 30  1  0  0  0  0
 71 34  1  0  0  0  0
 72 34  1  0  0  0  0
 73 34  1  0  0  0  0
 74 35  1  0  0  0  0
M  END
