
  ACD/Labs07111022523D

 45 47  0  0  0  0  0  0  0  0  1 V2000
   19.0451  -11.3633    0.6610 C   0  0  0  0  0  0  0  0  0  0  0  0
   18.4552  -12.5907    0.9116 C   0  0  0  0  0  0  0  0  0  0  0  0
   18.5375  -10.2222    1.2719 C   0  0  0  0  0  0  0  0  0  0  0  0
   17.3694  -12.6924    1.7580 C   0  0  0  0  0  0  0  0  0  0  0  0
   17.4441  -10.3226    2.1236 C   0  0  0  0  0  0  0  0  0  0  0  0
   16.8584  -11.5589    2.3647 C   0  0  0  0  0  0  0  0  0  0  0  0
   20.6458  -12.3826   -0.8554 C   0  0  0  0  0  0  0  0  0  0  0  0
   20.1278  -13.6113   -0.6658 C   0  0  0  0  0  0  0  0  0  0  0  0
   20.1242  -11.2958   -0.1865 O   0  0  0  0  0  0  0  0  0  0  0  0
   19.0030  -13.7755    0.2633 C   0  0  0  0  0  0  0  0  0  0  0  0
   21.7873  -12.2011   -1.7803 C   0  0  0  0  0  0  0  0  0  0  0  0
   22.2649  -10.9273   -2.0445 C   0  0  0  0  0  0  0  0  0  0  0  0
   22.3913  -13.2975   -2.3822 C   0  0  0  0  0  0  0  0  0  0  0  0
   23.3372  -10.7492   -2.9061 C   0  0  0  0  0  0  0  0  0  0  0  0
   23.4593  -13.1202   -3.2459 C   0  0  0  0  0  0  0  0  0  0  0  0
   23.9324  -11.8455   -3.5083 C   0  0  0  0  0  0  0  0  0  0  0  0
   16.8066  -13.9073    1.9983 O   0  0  0  0  0  0  0  0  0  0  0  0
   18.5496  -14.8733    0.4996 O   0  0  0  0  0  0  0  0  0  0  0  0
   16.9551   -9.1938    2.7166 O   0  0  0  0  0  0  0  0  0  0  0  0
   24.9795  -11.6702   -4.3593 O   0  0  0  0  0  0  0  0  0  0  0  0
   15.8455   -9.2041    3.6071 C   0  0  0  0  0  0  0  0  0  0  0  0
   15.7841  -11.6486    3.2006 O   0  0  0  0  0  0  0  0  0  0  0  0
   20.6613  -14.6841   -1.3187 O   0  0  0  0  0  0  0  0  0  0  0  0
   19.0958   -8.9953    1.0525 O   0  0  0  0  0  0  0  0  0  0  0  0
   15.1390  -12.8898    3.4665 C   0  0  0  0  0  0  0  0  0  0  0  0
   20.2280  -16.0172   -1.0716 C   0  0  0  0  0  0  0  0  0  0  0  0
   20.1750   -8.7839    0.1503 C   0  0  0  0  0  0  0  0  0  0  0  0
   21.7869  -10.0467   -1.5644 H   0  0  0  0  0  0  0  0  0  0  0  0
   22.0179  -14.3224   -2.1715 H   0  0  0  0  0  0  0  0  0  0  0  0
   23.7198   -9.7271   -3.1141 H   0  0  0  0  0  0  0  0  0  0  0  0
   23.9363  -14.0001   -3.7281 H   0  0  0  0  0  0  0  0  0  0  0  0
   16.0130  -13.9829    2.6216 H   0  0  0  0  0  0  0  0  0  0  0  0
   25.4126  -12.4713   -4.8005 H   0  0  0  0  0  0  0  0  0  0  0  0
   14.9054   -9.0782    3.0283 H   0  0  0  0  0  0  0  0  0  0  0  0
   15.8177  -10.1717    4.1525 H   0  0  0  0  0  0  0  0  0  0  0  0
   15.9470   -8.3701    4.3343 H   0  0  0  0  0  0  0  0  0  0  0  0
   14.3260  -13.0502    2.7264 H   0  0  0  0  0  0  0  0  0  0  0  0
   15.8787  -13.7153    3.3887 H   0  0  0  0  0  0  0  0  0  0  0  0
   14.7089  -12.8713    4.4908 H   0  0  0  0  0  0  0  0  0  0  0  0
   19.4344  -16.2893   -1.8000 H   0  0  0  0  0  0  0  0  0  0  0  0
   21.0876  -16.7124   -1.1837 H   0  0  0  0  0  0  0  0  0  0  0  0
   19.8236  -16.0895   -0.0392 H   0  0  0  0  0  0  0  0  0  0  0  0
   19.7743   -8.6041   -0.8703 H   0  0  0  0  0  0  0  0  0  0  0  0
   20.7634   -7.9001    0.4780 H   0  0  0  0  0  0  0  0  0  0  0  0
   20.8288   -9.6823    0.1385 H   0  0  0  0  0  0  0  0  0  0  0  0
  3  1  1  0  0  0  0
  4  2  1  0  0  0  0
  5  3  2  0  0  0  0
  6  4  2  0  0  0  0
  6  5  1  0  0  0  0
  8  7  2  0  0  0  0
  9  7  1  0  0  0  0
 10  8  1  0  0  0  0
  1  9  1  0  0  0  0
  2 10  1  0  0  0  0
  2  1  2  0  0  0  0
 12 11  2  0  0  0  0
 13 11  1  0  0  0  0
 14 12  1  0  0  0  0
 15 13  2  0  0  0  0
 16 14  2  0  0  0  0
 16 15  1  0  0  0  0
  7 11  1  0  0  0  0
  4 17  1  0  0  0  0
 10 18  2  0  0  0  0
  5 19  1  0  0  0  0
 16 20  1  0  0  0  0
 19 21  1  0  0  0  0
  6 22  1  0  0  0  0
  8 23  1  0  0  0  0
  3 24  1  0  0  0  0
 22 25  1  0  0  0  0
 23 26  1  0  0  0  0
 24 27  1  0  0  0  0
 28 12  1  0  0  0  0
 29 13  1  0  0  0  0
 30 14  1  0  0  0  0
 31 15  1  0  0  0  0
 32 17  1  0  0  0  0
 33 20  1  0  0  0  0
 34 21  1  0  0  0  0
 35 21  1  0  0  0  0
 36 21  1  0  0  0  0
 37 25  1  0  0  0  0
 38 25  1  0  0  0  0
 39 25  1  0  0  0  0
 40 26  1  0  0  0  0
 41 26  1  0  0  0  0
 42 26  1  0  0  0  0
 43 27  1  0  0  0  0
 44 27  1  0  0  0  0
 45 27  1  0  0  0  0
M  END
