
  ACD/Labs07101015593D

 42 45  0  0  0  0  0  0  0  0  1 V2000
   23.1752  -12.7674   -3.1379 C   0  0  0  0  0  0  0  0  0  0  0  0
   23.1928  -13.6253   -2.0439 C   0  0  0  0  0  0  0  0  0  0  0  0
   22.9314  -13.2747   -4.4035 C   0  0  0  0  0  0  0  0  0  0  0  0
   22.9705  -14.9832   -2.2316 C   0  0  0  0  0  0  0  0  0  0  0  0
   22.7070  -14.6282   -4.5881 C   0  0  0  0  0  0  0  0  0  0  0  0
   22.7274  -15.4835   -3.4988 C   0  0  0  0  0  0  0  0  0  0  0  0
   23.9719  -10.9535   -1.5972 C   0  0  0  0  0  0  0  0  0  0  0  0
   23.1514  -11.6383   -0.5899 N   0  0  0  0  0  0  0  0  0  0  0  0
   23.4089  -11.2775   -2.9773 C   0  0  0  0  0  0  0  0  0  0  0  0
   23.4492  -13.0827   -0.6426 C   0  0  0  0  0  0  0  0  0  0  0  0
   23.4671  -11.0191    0.7111 C   0  0  0  0  0  0  0  0  0  0  0  0
   23.1415  -11.8978    1.9015 C   0  0  0  0  0  0  0  0  0  0  0  0
   22.7225  -13.2108    1.7333 C   0  0  0  0  0  0  0  0  0  0  0  0
   22.5489  -13.8041    0.3585 C   0  0  0  0  0  0  0  0  0  0  0  0
   23.2815  -11.3793    3.1791 C   0  0  0  0  0  0  0  0  0  0  0  0
   23.0093  -12.1686    4.2855 C   0  0  0  0  0  0  0  0  0  0  0  0
   22.6026  -13.4817    4.1145 C   0  0  0  0  0  0  0  0  0  0  0  0
   22.4575  -13.9990    2.8395 C   0  0  0  0  0  0  0  0  0  0  0  0
   22.4647  -15.0994   -5.8442 O   0  0  0  0  0  0  0  0  0  0  0  0
   22.5117  -16.8141   -3.6751 O   0  0  0  0  0  0  0  0  0  0  0  0
   23.1430  -11.6554    5.5375 O   0  0  0  0  0  0  0  0  0  0  0  0
   22.3469  -14.2639    5.1976 O   0  0  0  0  0  0  0  0  0  0  0  0
   22.7931  -16.4258   -6.2414 C   0  0  0  0  0  0  0  0  0  0  0  0
   22.9156  -12.5899   -5.2782 H   0  0  0  0  0  0  0  0  0  0  0  0
   22.9873  -15.6743   -1.3619 H   0  0  0  0  0  0  0  0  0  0  0  0
   23.9356   -9.8591   -1.4097 H   0  0  0  0  0  0  0  0  0  0  0  0
   25.0208  -11.3098   -1.5119 H   0  0  0  0  0  0  0  0  0  0  0  0
   24.1289  -10.9402   -3.7532 H   0  0  0  0  0  0  0  0  0  0  0  0
   22.4430  -10.7450   -3.1111 H   0  0  0  0  0  0  0  0  0  0  0  0
   24.5220  -13.2158   -0.3864 H   0  0  0  0  0  0  0  0  0  0  0  0
   24.5533  -10.7858    0.7209 H   0  0  0  0  0  0  0  0  0  0  0  0
   22.8846  -10.0763    0.7882 H   0  0  0  0  0  0  0  0  0  0  0  0
   21.4873  -13.6968    0.0491 H   0  0  0  0  0  0  0  0  0  0  0  0
   22.8183  -14.8814    0.3923 H   0  0  0  0  0  0  0  0  0  0  0  0
   23.6128  -10.3278    3.3167 H   0  0  0  0  0  0  0  0  0  0  0  0
   22.1270  -15.0510    2.7034 H   0  0  0  0  0  0  0  0  0  0  0  0
   22.3362  -17.1797   -4.6023 H   0  0  0  0  0  0  0  0  0  0  0  0
   22.9453  -12.2328    6.3448 H   0  0  0  0  0  0  0  0  0  0  0  0
   22.0508  -15.2232    5.0703 H   0  0  0  0  0  0  0  0  0  0  0  0
   23.8890  -16.5806   -6.1439 H   0  0  0  0  0  0  0  0  0  0  0  0
   22.2575  -17.1501   -5.5909 H   0  0  0  0  0  0  0  0  0  0  0  0
   22.4900  -16.5810   -7.2991 H   0  0  0  0  0  0  0  0  0  0  0  0
  3  1  2  0  0  0  0
  4  2  2  0  0  0  0
  5  3  1  0  0  0  0
  6  4  1  0  0  0  0
  6  5  2  0  0  0  0
  8  7  1  0  0  0  0
  9  7  1  0  0  0  0
  1  9  1  0  0  0  0
  2 10  1  0  0  0  0
  2  1  1  0  0  0  0
 12 11  1  0  0  0  0
  8 11  1  0  0  0  0
 10  8  1  0  0  0  0
 14 13  1  0  0  0  0
 14 10  1  0  0  0  0
 16 15  1  0  0  0  0
 12 15  2  0  0  0  0
 17 16  2  0  0  0  0
 13 12  1  0  0  0  0
 18 17  1  0  0  0  0
 18 13  2  0  0  0  0
  5 19  1  0  0  0  0
  6 20  1  0  0  0  0
 16 21  1  0  0  0  0
 17 22  1  0  0  0  0
 19 23  1  0  0  0  0
 24  3  1  0  0  0  0
 25  4  1  0  0  0  0
 26  7  1  0  0  0  0
 27  7  1  0  0  0  0
 28  9  1  0  0  0  0
 29  9  1  0  0  0  0
 30 10  1  0  0  0  0
 31 11  1  0  0  0  0
 32 11  1  0  0  0  0
 33 14  1  0  0  0  0
 34 14  1  0  0  0  0
 35 15  1  0  0  0  0
 36 18  1  0  0  0  0
 37 20  1  0  0  0  0
 38 21  1  0  0  0  0
 39 22  1  0  0  0  0
 40 23  1  0  0  0  0
 41 23  1  0  0  0  0
 42 23  1  0  0  0  0
M  END
