
  ACD/Labs08291020233D

 41 42  0  0  0  0  0  0  0  0  1 V2000
   17.0038  -17.7075   -2.0945 C   0  0  0  0  0  0  0  0  0  0  0  0
   15.8526  -16.7452   -1.6934 C   0  0  0  0  0  0  0  0  0  0  0  0
   16.6591  -19.0994   -1.6144 C   0  0  0  0  0  0  0  0  0  0  0  0
   14.4984  -17.1792   -2.3556 C   0  0  0  0  0  0  0  0  0  0  0  0
   15.2059  -19.4873   -1.4690 C   0  0  0  0  0  0  0  0  0  0  0  0
   14.4148  -18.7151   -2.5322 C   0  0  0  0  0  0  0  0  0  0  0  0
   18.6577  -15.8066   -1.8535 C   0  0  0  0  0  0  0  0  0  0  0  0
   17.5199  -14.8563   -1.4537 C   0  0  0  0  0  0  0  0  0  0  0  0
   18.3131  -17.2439   -1.4332 C   0  0  0  0  0  0  0  0  0  0  0  0
   16.2115  -15.3081   -2.1261 C   0  0  0  0  0  0  0  0  0  0  0  0
   17.5351  -19.8904   -1.3479 O   0  0  0  0  0  0  0  0  0  0  0  0
   14.3519  -16.5422   -3.7455 C   0  0  0  0  0  0  0  0  0  0  0  0
   15.6979  -16.7903   -0.2826 O   0  0  0  0  0  0  0  0  0  0  0  0
   17.1870  -17.7232   -3.6210 C   0  0  0  0  0  0  0  0  0  0  0  0
   17.8660  -13.4375   -1.8923 C   0  0  0  0  0  0  0  0  0  0  0  0
   16.9075  -12.5839   -2.2859 C   0  0  0  0  0  0  0  0  0  0  0  0
   19.3025  -12.9623   -1.8670 C   0  0  0  0  0  0  0  0  0  0  0  0
   13.6739  -16.8419   -1.6858 H   0  0  0  0  0  0  0  0  0  0  0  0
   17.3886  -14.8851   -0.3472 H   0  0  0  0  0  0  0  0  0  0  0  0
   15.0934  -20.5815   -1.6251 H   0  0  0  0  0  0  0  0  0  0  0  0
   14.8471  -19.2189   -0.4523 H   0  0  0  0  0  0  0  0  0  0  0  0
   13.3497  -19.0246   -2.4687 H   0  0  0  0  0  0  0  0  0  0  0  0
   14.8197  -18.9823   -3.5317 H   0  0  0  0  0  0  0  0  0  0  0  0
   18.7984  -15.7688   -2.9550 H   0  0  0  0  0  0  0  0  0  0  0  0
   19.5955  -15.4902   -1.3488 H   0  0  0  0  0  0  0  0  0  0  0  0
   18.1972  -17.2820   -0.3289 H   0  0  0  0  0  0  0  0  0  0  0  0
   19.1376  -17.9210   -1.7431 H   0  0  0  0  0  0  0  0  0  0  0  0
   16.3391  -15.2780   -3.2294 H   0  0  0  0  0  0  0  0  0  0  0  0
   15.3918  -14.6197   -1.8286 H   0  0  0  0  0  0  0  0  0  0  0  0
   13.7698  -15.5996   -3.6609 H   0  0  0  0  0  0  0  0  0  0  0  0
   15.3591  -16.3195   -4.1584 H   0  0  0  0  0  0  0  0  0  0  0  0
   13.8203  -17.2462   -4.4210 H   0  0  0  0  0  0  0  0  0  0  0  0
   15.8251  -15.9505    0.2675 H   0  0  0  0  0  0  0  0  0  0  0  0
   16.7262  -18.6435   -4.0395 H   0  0  0  0  0  0  0  0  0  0  0  0
   16.6952  -16.8296   -4.0618 H   0  0  0  0  0  0  0  0  0  0  0  0
   18.2712  -17.7086   -3.8636 H   0  0  0  0  0  0  0  0  0  0  0  0
   17.1750  -11.5481   -2.5858 H   0  0  0  0  0  0  0  0  0  0  0  0
   15.8467  -12.9132   -2.3116 H   0  0  0  0  0  0  0  0  0  0  0  0
   19.6339  -12.8423   -0.8133 H   0  0  0  0  0  0  0  0  0  0  0  0
   19.9485  -13.7099   -2.3753 H   0  0  0  0  0  0  0  0  0  0  0  0
   19.3787  -11.9863   -2.3925 H   0  0  0  0  0  0  0  0  0  0  0  0
  3  1  1  0  0  0  0
  4  2  1  0  0  0  0
  5  3  1  0  0  0  0
  6  4  1  0  0  0  0
  6  5  1  0  0  0  0
  8  7  1  0  0  0  0
  9  7  1  0  0  0  0
 10  8  1  0  0  0  0
  1  9  1  0  0  0  0
  2 10  1  0  0  0  0
  2  1  1  0  0  0  0
  3 11  2  0  0  0  0
  4 12  1  0  0  0  0
  2 13  1  0  0  0  0
  1 14  1  0  0  0  0
  8 15  1  0  0  0  0
 15 16  2  0  0  0  0
 15 17  1  0  0  0  0
 18  4  1  0  0  0  0
 19  8  1  0  0  0  0
 20  5  1  0  0  0  0
 21  5  1  0  0  0  0
 22  6  1  0  0  0  0
 23  6  1  0  0  0  0
 24  7  1  0  0  0  0
 25  7  1  0  0  0  0
 26  9  1  0  0  0  0
 27  9  1  0  0  0  0
 28 10  1  0  0  0  0
 29 10  1  0  0  0  0
 30 12  1  0  0  0  0
 31 12  1  0  0  0  0
 32 12  1  0  0  0  0
 33 13  1  0  0  0  0
 34 14  1  0  0  0  0
 35 14  1  0  0  0  0
 36 14  1  0  0  0  0
 37 16  1  0  0  0  0
 38 16  1  0  0  0  0
 39 17  1  0  0  0  0
 40 17  1  0  0  0  0
 41 17  1  0  0  0  0
M  END
