
  ACD/Labs07101016403D

 45 46  0  0  0  0  0  0  0  0  1 V2000
   15.6270  -13.2577   -2.8786 C   0  0  0  0  0  0  0  0  0  0  0  0
   15.6291  -13.8916   -1.4424 C   0  0  0  0  0  0  0  0  0  0  0  0
   14.1842  -13.2167   -3.3859 C   0  0  0  0  0  0  0  0  0  0  0  0
   14.8351  -15.2059   -1.4549 C   0  0  0  0  0  0  0  0  0  0  0  0
   13.7579  -14.6555   -3.6649 C   0  0  0  0  0  0  0  0  0  0  0  0
   13.9966  -15.5400   -2.4543 C   0  0  0  0  0  0  0  0  0  0  0  0
   15.5346  -10.9387   -1.7497 C   0  0  0  0  0  0  0  0  0  0  0  0
   15.7071  -11.6090   -0.3957 C   0  0  0  0  0  0  0  0  0  0  0  0
   16.2183  -11.7955   -2.8679 C   0  0  0  0  0  0  0  0  0  0  0  0
   14.9742  -12.9327   -0.4391 C   0  0  0  0  0  0  0  0  0  0  0  0
   15.9527  -11.1547   -4.2597 C   0  0  0  0  0  0  0  0  0  0  0  0
   16.3840   -9.7124   -4.4311 C   0  0  0  0  0  0  0  0  0  0  0  0
   16.2443   -9.1640   -5.5007 O   0  0  0  0  0  0  0  0  0  0  0  0
   16.9278   -9.0359   -3.3848 O   0  0  0  0  0  0  0  0  0  0  0  0
   14.9691  -16.1662   -0.2939 C   0  0  0  0  0  0  0  0  0  0  0  0
   14.0026  -17.1985   -0.4321 O   0  0  0  0  0  0  0  0  0  0  0  0
   17.0797  -14.1699   -1.0189 C   0  0  0  0  0  0  0  0  0  0  0  0
   17.7328  -11.8504   -2.5991 C   0  0  0  0  0  0  0  0  0  0  0  0
   16.1770   -9.5471   -1.6877 C   0  0  0  0  0  0  0  0  0  0  0  0
   16.2556  -13.8824   -3.5549 H   0  0  0  0  0  0  0  0  0  0  0  0
   14.4496  -10.8474   -1.9846 H   0  0  0  0  0  0  0  0  0  0  0  0
   13.5222  -12.7682   -2.6146 H   0  0  0  0  0  0  0  0  0  0  0  0
   14.1258  -12.6165   -4.3191 H   0  0  0  0  0  0  0  0  0  0  0  0
   12.6760  -14.6732   -3.9170 H   0  0  0  0  0  0  0  0  0  0  0  0
   14.3448  -15.0504   -4.5216 H   0  0  0  0  0  0  0  0  0  0  0  0
   13.5119  -16.5250   -2.2837 H   0  0  0  0  0  0  0  0  0  0  0  0
   16.7855  -11.7824   -0.1927 H   0  0  0  0  0  0  0  0  0  0  0  0
   15.2779  -10.9671    0.4030 H   0  0  0  0  0  0  0  0  0  0  0  0
   13.9205  -12.7486   -0.7394 H   0  0  0  0  0  0  0  0  0  0  0  0
   14.9969  -13.3877    0.5741 H   0  0  0  0  0  0  0  0  0  0  0  0
   16.4923  -11.7500   -5.0269 H   0  0  0  0  0  0  0  0  0  0  0  0
   14.8606  -11.1946   -4.4597 H   0  0  0  0  0  0  0  0  0  0  0  0
   17.2162   -8.0728   -3.5000 H   0  0  0  0  0  0  0  0  0  0  0  0
   15.9777  -16.6319   -0.2813 H   0  0  0  0  0  0  0  0  0  0  0  0
   14.7886  -15.6462    0.6712 H   0  0  0  0  0  0  0  0  0  0  0  0
   13.3113  -17.3447    0.2923 H   0  0  0  0  0  0  0  0  0  0  0  0
   17.7704  -13.8347   -1.8221 H   0  0  0  0  0  0  0  0  0  0  0  0
   17.3045  -13.6160   -0.0823 H   0  0  0  0  0  0  0  0  0  0  0  0
   17.2125  -15.2597   -0.8474 H   0  0  0  0  0  0  0  0  0  0  0  0
   18.2834  -11.6104   -3.5338 H   0  0  0  0  0  0  0  0  0  0  0  0
   17.9963  -11.1099   -1.8137 H   0  0  0  0  0  0  0  0  0  0  0  0
   18.0111  -12.8703   -2.2569 H   0  0  0  0  0  0  0  0  0  0  0  0
   17.2307   -9.6102   -2.0343 H   0  0  0  0  0  0  0  0  0  0  0  0
   15.6127   -8.8496   -2.3432 H   0  0  0  0  0  0  0  0  0  0  0  0
   16.1532   -9.1749   -0.6410 H   0  0  0  0  0  0  0  0  0  0  0  0
  3  1  1  0  0  0  0
  4  2  1  0  0  0  0
  5  3  1  0  0  0  0
  6  4  2  0  0  0  0
  6  5  1  0  0  0  0
  9  7  1  0  0  0  0
 10  8  1  0  0  0  0
  1  9  1  0  0  0  0
  2 10  1  0  0  0  0
  2  1  1  0  0  0  0
  8  7  1  0  0  0  0
  9 11  1  0  0  0  0
 13 12  2  0  0  0  0
 14 12  1  0  0  0  0
 11 12  1  0  0  0  0
  4 15  1  0  0  0  0
 15 16  1  0  0  0  0
  2 17  1  0  0  0  0
  9 18  1  0  0  0  0
  7 19  1  0  0  0  0
 20  1  1  0  0  0  0
 21  7  1  0  0  0  0
 22  3  1  0  0  0  0
 23  3  1  0  0  0  0
 24  5  1  0  0  0  0
 25  5  1  0  0  0  0
 26  6  1  0  0  0  0
 27  8  1  0  0  0  0
 28  8  1  0  0  0  0
 29 10  1  0  0  0  0
 30 10  1  0  0  0  0
 31 11  1  0  0  0  0
 32 11  1  0  0  0  0
 33 14  1  0  0  0  0
 34 15  1  0  0  0  0
 35 15  1  0  0  0  0
 36 16  1  0  0  0  0
 37 17  1  0  0  0  0
 38 17  1  0  0  0  0
 39 17  1  0  0  0  0
 40 18  1  0  0  0  0
 41 18  1  0  0  0  0
 42 18  1  0  0  0  0
 43 19  1  0  0  0  0
 44 19  1  0  0  0  0
 45 19  1  0  0  0  0
M  END
