
  ACD/Labs07101015503D

 39 42  0  0  0  0  0  0  0  0  1 V2000
   21.3267  -12.8198   -2.9745 C   0  0  0  0  0  0  0  0  0  0  0  0
   21.1678  -14.0190   -1.6488 C   0  0  0  0  0  0  0  0  0  0  0  0
   20.8418  -13.4324   -4.3128 C   0  0  0  0  0  0  0  0  0  0  0  0
   19.8160  -14.7719   -1.7039 C   0  0  0  0  0  0  0  0  0  0  0  0
   19.5048  -14.1833   -4.1497 C   0  0  0  0  0  0  0  0  0  0  0  0
   19.5978  -15.3319   -3.1192 C   0  0  0  0  0  0  0  0  0  0  0  0
   21.8950  -11.8116   -2.1055 C   0  0  0  0  0  0  0  0  0  0  0  0
   21.3087  -11.6166   -0.7443 C   0  0  0  0  0  0  0  0  0  0  0  0
   22.8231  -12.6066   -2.8758 C   0  0  0  0  0  0  0  0  0  0  0  0
   21.3760  -13.1205   -0.2378 C   0  0  0  0  0  0  0  0  0  0  0  0
   22.2664  -15.1004   -1.7544 C   0  0  0  0  0  0  0  0  0  0  0  0
   19.8059  -15.9242   -0.6898 C   0  0  0  0  0  0  0  0  0  0  0  0
   20.4338  -11.0809   -2.8187 C   0  0  0  0  0  0  0  0  0  0  0  0
   20.3628  -11.8233   -1.8933 C   0  0  0  0  0  0  0  0  0  0  0  0
   18.9092  -12.4002   -1.8592 C   0  0  0  0  0  0  0  0  0  0  0  0
   18.9958  -14.0573   -1.4620 H   0  0  0  0  0  0  0  0  0  0  0  0
   22.3931  -10.9110   -2.5066 H   0  0  0  0  0  0  0  0  0  0  0  0
   21.4521  -10.9364    0.1253 H   0  0  0  0  0  0  0  0  0  0  0  0
   20.7053  -12.6169   -5.0548 H   0  0  0  0  0  0  0  0  0  0  0  0
   21.6093  -14.1456   -4.6826 H   0  0  0  0  0  0  0  0  0  0  0  0
   18.7301  -13.4618   -3.8125 H   0  0  0  0  0  0  0  0  0  0  0  0
   19.2127  -14.6082   -5.1338 H   0  0  0  0  0  0  0  0  0  0  0  0
   20.4501  -15.9938   -3.3832 H   0  0  0  0  0  0  0  0  0  0  0  0
   18.6540  -15.9178   -3.1363 H   0  0  0  0  0  0  0  0  0  0  0  0
   23.4668  -13.3562   -2.3678 H   0  0  0  0  0  0  0  0  0  0  0  0
   23.3834  -12.1460   -3.7173 H   0  0  0  0  0  0  0  0  0  0  0  0
   20.5652  -13.3082    0.4981 H   0  0  0  0  0  0  0  0  0  0  0  0
   22.3610  -13.3155    0.2378 H   0  0  0  0  0  0  0  0  0  0  0  0
   23.1182  -14.7057   -2.3487 H   0  0  0  0  0  0  0  0  0  0  0  0
   22.6191  -15.3703   -0.7359 H   0  0  0  0  0  0  0  0  0  0  0  0
   21.8516  -16.0015   -2.2552 H   0  0  0  0  0  0  0  0  0  0  0  0
   20.6833  -16.5820   -0.8684 H   0  0  0  0  0  0  0  0  0  0  0  0
   19.8566  -15.5109    0.3404 H   0  0  0  0  0  0  0  0  0  0  0  0
   18.8713  -16.5133   -0.8085 H   0  0  0  0  0  0  0  0  0  0  0  0
   20.9987  -10.1386   -2.6540 H   0  0  0  0  0  0  0  0  0  0  0  0
   19.4820  -10.8555   -3.3456 H   0  0  0  0  0  0  0  0  0  0  0  0
   18.9439  -13.4999   -2.0138 H   0  0  0  0  0  0  0  0  0  0  0  0
   18.4465  -12.1792   -0.8735 H   0  0  0  0  0  0  0  0  0  0  0  0
   18.3062  -11.9317   -2.6664 H   0  0  0  0  0  0  0  0  0  0  0  0
  3  1  1  0  0  0  0
  4  2  1  0  0  0  0
  5  3  1  0  0  0  0
  6  4  1  0  0  0  0
  6  5  1  0  0  0  0
  8  7  1  0  0  0  0
  9  7  1  0  0  0  0
 10  8  1  0  0  0  0
  1  9  1  0  0  0  0
  2 10  1  0  0  0  0
  2  1  1  0  0  0  0
  2 11  1  0  0  0  0
  4 12  1  0  0  0  0
  1 13  1  0  0  0  0
 13 14  1  0  0  0  0
 14  7  1  0  0  0  0
 14  8  1  0  0  0  0
 14 15  1  0  0  0  0
 16  4  1  0  0  0  0
 17  7  1  0  0  0  0
 18  8  1  0  0  0  0
 19  3  1  0  0  0  0
 20  3  1  0  0  0  0
 21  5  1  0  0  0  0
 22  5  1  0  0  0  0
 23  6  1  0  0  0  0
 24  6  1  0  0  0  0
 25  9  1  0  0  0  0
 26  9  1  0  0  0  0
 27 10  1  0  0  0  0
 28 10  1  0  0  0  0
 29 11  1  0  0  0  0
 30 11  1  0  0  0  0
 31 11  1  0  0  0  0
 32 12  1  0  0  0  0
 33 12  1  0  0  0  0
 34 12  1  0  0  0  0
 35 13  1  0  0  0  0
 36 13  1  0  0  0  0
 37 15  1  0  0  0  0
 38 15  1  0  0  0  0
 39 15  1  0  0  0  0
M  END
