
  ACD/Labs07111023153D

 99102  0  0  0  0  0  0  0  0  1 V2000
   15.4669  -11.7981   -2.5930 C   0  0  0  0  0  0  0  0  0  0  0  0
   16.2359  -11.5872   -1.2411 C   0  0  0  0  0  0  0  0  0  0  0  0
   14.6427  -13.1051   -2.5629 C   0  0  0  0  0  0  0  0  0  0  0  0
   16.3397  -12.8428   -0.3324 C   0  0  0  0  0  0  0  0  0  0  0  0
   13.9427  -13.3213   -1.2051 C   0  0  0  0  0  0  0  0  0  0  0  0
   14.9799  -13.5395   -0.0850 C   0  0  0  0  0  0  0  0  0  0  0  0
   17.2433  -10.4930   -3.7651 C   0  0  0  0  0  0  0  0  0  0  0  0
   17.8017  -10.1031   -2.6138 C   0  0  0  0  0  0  0  0  0  0  0  0
   16.4722  -11.8132   -3.7907 C   0  0  0  0  0  0  0  0  0  0  0  0
   17.6688  -11.0069   -1.4140 C   0  0  0  0  0  0  0  0  0  0  0  0
   18.1038  -12.3741   -6.1841 C   0  0  0  0  0  0  0  0  0  0  0  0
   17.3639   -9.6050   -4.9860 C   0  0  0  0  0  0  0  0  0  0  0  0
   16.6265  -12.7500   -6.1898 C   0  0  0  0  0  0  0  0  0  0  0  0
   15.7633  -11.9784   -5.1589 C   0  0  0  0  0  0  0  0  0  0  0  0
   16.6892  -15.2990    1.7683 C   0  0  0  0  0  0  0  0  0  0  0  0
   15.7619  -14.6155    2.7462 C   0  0  0  0  0  0  0  0  0  0  0  0
   14.4049  -13.2142    1.1758 O   0  0  0  0  0  0  0  0  0  0  0  0
   14.4811  -14.0119    2.2887 C   0  0  0  0  0  0  0  0  0  0  0  0
   13.0339  -12.2712   -0.8762 O   0  0  0  0  0  0  0  0  0  0  0  0
   16.1143  -14.5618    4.0413 C   0  0  0  0  0  0  0  0  0  0  0  0
   15.2213  -13.8884    5.0624 C   0  0  0  0  0  0  0  0  0  0  0  0
   13.4797  -14.2072    2.9406 O   0  0  0  0  0  0  0  0  0  0  0  0
   18.6018  -11.5044   -7.0835 C   0  0  0  0  0  0  0  0  0  0  0  0
   20.0785  -11.1297   -7.0652 C   0  0  0  0  0  0  0  0  0  0  0  0
   20.7260  -11.5248   -8.2697 O   0  0  0  0  0  0  0  0  0  0  0  0
   14.4884  -10.6237   -2.7572 C   0  0  0  0  0  0  0  0  0  0  0  0
   16.9453  -12.4176    1.0107 C   0  0  0  0  0  0  0  0  0  0  0  0
   17.2584  -13.8741   -0.9977 C   0  0  0  0  0  0  0  0  0  0  0  0
   19.0123  -13.0064   -5.1487 C   0  0  0  0  0  0  0  0  0  0  0  0
   22.0755  -11.3860   -8.4238 C   0  0  0  0  0  0  0  0  0  0  0  0
   22.5875  -10.8549   -9.5984 C   0  0  0  0  0  0  0  0  0  0  0  0
   22.9409  -11.7752   -7.4123 C   0  0  0  0  0  0  0  0  0  0  0  0
   23.9566  -10.7099   -9.7631 C   0  0  0  0  0  0  0  0  0  0  0  0
   24.3095  -11.6306   -7.5755 C   0  0  0  0  0  0  0  0  0  0  0  0
   24.8176  -11.0976   -8.7495 C   0  0  0  0  0  0  0  0  0  0  0  0
   11.8816  -12.8099   -0.2282 C   0  0  0  0  0  0  0  0  0  0  0  0
    9.4948  -12.9258   -0.3730 C   0  0  0  0  0  0  0  0  0  0  0  0
   10.7035  -12.3864   -0.9153 O   0  0  0  0  0  0  0  0  0  0  0  0
   11.8219  -12.3161    1.2269 C   0  0  0  0  0  0  0  0  0  0  0  0
   10.5575  -12.8729    1.9022 C   0  0  0  0  0  0  0  0  0  0  0  0
    9.3134  -12.4957    1.0883 C   0  0  0  0  0  0  0  0  0  0  0  0
    9.1282  -11.0903    1.1450 O   0  0  0  0  0  0  0  0  0  0  0  0
   10.6486  -14.2869    1.9815 O   0  0  0  0  0  0  0  0  0  0  0  0
   12.9674  -12.7724    1.9331 O   0  0  0  0  0  0  0  0  0  0  0  0
    9.4572  -14.4568   -0.5059 C   0  0  0  0  0  0  0  0  0  0  0  0
   17.0756  -15.0161    4.3662 H   0  0  0  0  0  0  0  0  0  0  0  0
   17.9277  -11.0458   -7.8388 H   0  0  0  0  0  0  0  0  0  0  0  0
   11.9440  -13.9218   -0.2407 H   0  0  0  0  0  0  0  0  0  0  0  0
    8.4219  -13.0125    1.5143 H   0  0  0  0  0  0  0  0  0  0  0  0
   15.5919  -10.8438   -0.7243 H   0  0  0  0  0  0  0  0  0  0  0  0
   13.8698  -13.0598   -3.3598 H   0  0  0  0  0  0  0  0  0  0  0  0
   15.3230  -13.9623   -2.7544 H   0  0  0  0  0  0  0  0  0  0  0  0
   13.2554  -14.1909   -1.2807 H   0  0  0  0  0  0  0  0  0  0  0  0
   15.2005  -14.6244    0.0084 H   0  0  0  0  0  0  0  0  0  0  0  0
   18.3251   -9.1238   -2.6506 H   0  0  0  0  0  0  0  0  0  0  0  0
   17.1661  -12.6743   -3.6839 H   0  0  0  0  0  0  0  0  0  0  0  0
   17.9355  -10.4162   -0.5116 H   0  0  0  0  0  0  0  0  0  0  0  0
   18.3898  -11.8433   -1.5362 H   0  0  0  0  0  0  0  0  0  0  0  0
   17.3444  -10.2322   -5.9030 H   0  0  0  0  0  0  0  0  0  0  0  0
   16.5140   -8.8897   -5.0086 H   0  0  0  0  0  0  0  0  0  0  0  0
   18.3216   -9.0434   -4.9419 H   0  0  0  0  0  0  0  0  0  0  0  0
   16.2282  -12.5477   -7.2070 H   0  0  0  0  0  0  0  0  0  0  0  0
   16.5515  -13.8368   -5.9715 H   0  0  0  0  0  0  0  0  0  0  0  0
   14.8143  -12.5346   -5.0026 H   0  0  0  0  0  0  0  0  0  0  0  0
   15.5391  -10.9697   -5.5670 H   0  0  0  0  0  0  0  0  0  0  0  0
   16.3776  -16.3579    1.6412 H   0  0  0  0  0  0  0  0  0  0  0  0
   16.6413  -14.7787    0.7877 H   0  0  0  0  0  0  0  0  0  0  0  0
   17.7292  -15.2633    2.1578 H   0  0  0  0  0  0  0  0  0  0  0  0
   14.4796  -14.6215    5.4459 H   0  0  0  0  0  0  0  0  0  0  0  0
   15.8405  -13.5130    5.9051 H   0  0  0  0  0  0  0  0  0  0  0  0
   14.6887  -13.0383    4.5847 H   0  0  0  0  0  0  0  0  0  0  0  0
   20.1983  -10.0297   -6.9653 H   0  0  0  0  0  0  0  0  0  0  0  0
   20.5969  -11.6372   -6.2238 H   0  0  0  0  0  0  0  0  0  0  0  0
   13.5755  -10.9737   -3.2850 H   0  0  0  0  0  0  0  0  0  0  0  0
   14.2096  -10.2317   -1.7555 H   0  0  0  0  0  0  0  0  0  0  0  0
   14.9730   -9.8185   -3.3499 H   0  0  0  0  0  0  0  0  0  0  0  0
   17.2686  -13.3198    1.5729 H   0  0  0  0  0  0  0  0  0  0  0  0
   17.8225  -11.7602    0.8295 H   0  0  0  0  0  0  0  0  0  0  0  0
   16.1832  -11.8663    1.6021 H   0  0  0  0  0  0  0  0  0  0  0  0
   16.7144  -14.8364   -1.1097 H   0  0  0  0  0  0  0  0  0  0  0  0
   17.5660  -13.5039   -1.9992 H   0  0  0  0  0  0  0  0  0  0  0  0
   18.1591  -14.0294   -0.3658 H   0  0  0  0  0  0  0  0  0  0  0  0
   19.0543  -14.1042   -5.3145 H   0  0  0  0  0  0  0  0  0  0  0  0
   20.0335  -12.5786   -5.2419 H   0  0  0  0  0  0  0  0  0  0  0  0
   18.6142  -12.8004   -4.1320 H   0  0  0  0  0  0  0  0  0  0  0  0
   21.8973  -10.5439  -10.4115 H   0  0  0  0  0  0  0  0  0  0  0  0
   22.5372  -12.2034   -6.4699 H   0  0  0  0  0  0  0  0  0  0  0  0
   24.3629  -10.2839  -10.7053 H   0  0  0  0  0  0  0  0  0  0  0  0
   25.0007  -11.9426   -6.7636 H   0  0  0  0  0  0  0  0  0  0  0  0
   25.9150  -10.9812   -8.8780 H   0  0  0  0  0  0  0  0  0  0  0  0
    8.6998  -12.4746   -1.0045 H   0  0  0  0  0  0  0  0  0  0  0  0
   11.8655  -11.2073    1.2811 H   0  0  0  0  0  0  0  0  0  0  0  0
   10.4745  -12.5159    2.9510 H   0  0  0  0  0  0  0  0  0  0  0  0
    8.2760  -10.7075    1.5339 H   0  0  0  0  0  0  0  0  0  0  0  0
   10.6291  -14.7455    2.8834 H   0  0  0  0  0  0  0  0  0  0  0  0
   13.6048  -12.1051    2.3485 H   0  0  0  0  0  0  0  0  0  0  0  0
    9.2064  -14.7312   -1.5529 H   0  0  0  0  0  0  0  0  0  0  0  0
   10.4518  -14.8757   -0.2415 H   0  0  0  0  0  0  0  0  0  0  0  0
    8.6859  -14.8688    0.1797 H   0  0  0  0  0  0  0  0  0  0  0  0
  3  1  1  0  0  0  0
  4  2  1  0  0  0  0
  5  3  1  0  0  0  0
  8  7  2  0  0  0  0
 10  8  1  0  0  0  0
  1  9  1  0  0  0  0
  2 10  1  0  0  0  0
  2  1  1  0  0  0  0
 13 11  1  0  0  0  0
  7 12  1  0  0  0  0
 14 13  1  0  0  0  0
  9  7  1  0  0  0  0
  9 14  1  0  0  0  0
  6  4  1  0  0  0  0
 16 15  1  0  0  0  0
 18 17  1  0  0  0  0
 19  5  1  0  0  0  0
  6  5  1  0  0  0  0
 17  6  1  0  0  0  0
 20 16  2  0  0  0  0
 18 16  1  0  0  0  0
 21 20  1  0  0  0  0
 22 18  2  0  0  0  0
 11 23  2  0  0  0  0
 23 24  1  0  0  0  0
 24 25  1  0  0  0  0
  1 26  1  0  0  0  0
  4 27  1  0  0  0  0
  4 28  1  0  0  0  0
 11 29  1  0  0  0  0
 31 30  1  0  0  0  0
 32 30  2  0  0  0  0
 33 31  2  0  0  0  0
 34 32  1  0  0  0  0
 35 33  1  0  0  0  0
 35 34  2  0  0  0  0
 25 30  1  0  0  0  0
 19 36  1  4  0  0  0
 38 37  1  0  0  0  0
 36 39  1  0  0  0  0
 40 39  1  0  0  0  0
 38 36  1  0  0  0  0
 41 37  1  0  0  0  0
 41 40  1  0  0  0  0
 42 41  1  0  0  0  0
 43 40  1  0  0  0  0
 44 39  1  0  0  0  0
 37 45  1  0  0  0  0
 46 20  1  0  0  0  0
 47 23  1  0  0  0  0
 48 36  1  0  0  0  0
 49 41  1  0  0  0  0
 50  2  1  0  0  0  0
 51  3  1  0  0  0  0
 52  3  1  0  0  0  0
 53  5  1  0  0  0  0
 54  6  1  0  0  0  0
 55  8  1  0  0  0  0
 56  9  1  0  0  0  0
 57 10  1  0  0  0  0
 58 10  1  0  0  0  0
 59 12  1  0  0  0  0
 60 12  1  0  0  0  0
 61 12  1  0  0  0  0
 62 13  1  0  0  0  0
 63 13  1  0  0  0  0
 64 14  1  0  0  0  0
 65 14  1  0  0  0  0
 66 15  1  0  0  0  0
 67 15  1  0  0  0  0
 68 15  1  0  0  0  0
 69 21  1  0  0  0  0
 70 21  1  0  0  0  0
 71 21  1  0  0  0  0
 72 24  1  0  0  0  0
 73 24  1  0  0  0  0
 74 26  1  0  0  0  0
 75 26  1  0  0  0  0
 76 26  1  0  0  0  0
 77 27  1  0  0  0  0
 78 27  1  0  0  0  0
 79 27  1  0  0  0  0
 80 28  1  0  0  0  0
 81 28  1  0  0  0  0
 82 28  1  0  0  0  0
 83 29  1  0  0  0  0
 84 29  1  0  0  0  0
 85 29  1  0  0  0  0
 86 31  1  0  0  0  0
 87 32  1  0  0  0  0
 88 33  1  0  0  0  0
 89 34  1  0  0  0  0
 90 35  1  0  0  0  0
 91 37  1  0  0  0  0
 92 39  1  0  0  0  0
 93 40  1  0  0  0  0
 94 42  1  0  0  0  0
 95 43  1  0  0  0  0
 96 44  1  0  0  0  0
 97 45  1  0  0  0  0
 98 45  1  0  0  0  0
 99 45  1  0  0  0  0
M  END
