
  ACD/Labs08301023313D

 40 41  0  0  0  0  0  0  0  0  1 V2000
   13.2867  -10.9478   -1.2110 C   0  0  0  0  0  0  0  0  0  0  0  0
   13.4668  -12.4840   -1.2810 C   0  0  0  0  0  0  0  0  0  0  0  0
   12.4832  -10.4370   -2.4280 C   0  0  0  0  0  0  0  0  0  0  0  0
   12.1224  -13.1507   -1.5115 C   0  0  0  0  0  0  0  0  0  0  0  0
   11.0886  -11.0796   -2.4265 C   0  0  0  0  0  0  0  0  0  0  0  0
   11.2087  -12.5988   -2.5891 C   0  0  0  0  0  0  0  0  0  0  0  0
   15.7190  -10.7363   -2.1676 C   0  0  0  0  0  0  0  0  0  0  0  0
   15.8054  -12.2680   -2.1693 C   0  0  0  0  0  0  0  0  0  0  0  0
   14.6565  -10.2931   -1.1853 C   0  0  0  0  0  0  0  0  0  0  0  0
   14.4173  -12.8699   -2.4281 C   0  0  0  0  0  0  0  0  0  0  0  0
   11.7515  -14.2166   -0.7774 C   0  0  0  0  0  0  0  0  0  0  0  0
   10.4130  -14.8846   -1.0129 C   0  0  0  0  0  0  0  0  0  0  0  0
   12.6674  -14.7693    0.2933 C   0  0  0  0  0  0  0  0  0  0  0  0
   12.3173   -8.9159   -2.3560 C   0  0  0  0  0  0  0  0  0  0  0  0
   14.8978   -9.4197   -0.3833 O   0  0  0  0  0  0  0  0  0  0  0  0
   16.7783  -12.7251   -3.2582 C   0  0  0  0  0  0  0  0  0  0  0  0
   12.7381  -10.6753   -0.2841 H   0  0  0  0  0  0  0  0  0  0  0  0
   13.8898  -12.8403   -0.3174 H   0  0  0  0  0  0  0  0  0  0  0  0
   13.0292  -10.7022   -3.3586 H   0  0  0  0  0  0  0  0  0  0  0  0
   10.5799  -10.8529   -1.4653 H   0  0  0  0  0  0  0  0  0  0  0  0
   10.4923  -10.6669   -3.2682 H   0  0  0  0  0  0  0  0  0  0  0  0
   11.6344  -12.8358   -3.5875 H   0  0  0  0  0  0  0  0  0  0  0  0
   10.2052  -13.0659   -2.4934 H   0  0  0  0  0  0  0  0  0  0  0  0
   16.6977  -10.3055   -1.8662 H   0  0  0  0  0  0  0  0  0  0  0  0
   15.4514  -10.3743   -3.1833 H   0  0  0  0  0  0  0  0  0  0  0  0
   16.1739  -12.6152   -1.1804 H   0  0  0  0  0  0  0  0  0  0  0  0
   14.4998  -13.9764   -2.4851 H   0  0  0  0  0  0  0  0  0  0  0  0
   14.0184  -12.4778   -3.3881 H   0  0  0  0  0  0  0  0  0  0  0  0
   10.2604  -15.0330   -2.1034 H   0  0  0  0  0  0  0  0  0  0  0  0
   10.3958  -15.8698   -0.4992 H   0  0  0  0  0  0  0  0  0  0  0  0
    9.6022  -14.2408   -0.6097 H   0  0  0  0  0  0  0  0  0  0  0  0
   13.4383  -15.4164   -0.1772 H   0  0  0  0  0  0  0  0  0  0  0  0
   13.1635  -13.9294    0.8254 H   0  0  0  0  0  0  0  0  0  0  0  0
   12.0726  -15.3678    1.0161 H   0  0  0  0  0  0  0  0  0  0  0  0
   12.2073   -8.5067   -3.3831 H   0  0  0  0  0  0  0  0  0  0  0  0
   11.4118   -8.6704   -1.7606 H   0  0  0  0  0  0  0  0  0  0  0  0
   13.2124   -8.4686   -1.8731 H   0  0  0  0  0  0  0  0  0  0  0  0
   16.2799  -12.6631   -4.2493 H   0  0  0  0  0  0  0  0  0  0  0  0
   17.6747  -12.0686   -3.2528 H   0  0  0  0  0  0  0  0  0  0  0  0
   17.0851  -13.7751   -3.0632 H   0  0  0  0  0  0  0  0  0  0  0  0
  3  1  1  0  0  0  0
  4  2  1  0  0  0  0
  5  3  1  0  0  0  0
  6  4  1  0  0  0  0
  6  5  1  0  0  0  0
  8  7  1  0  0  0  0
  9  7  1  0  0  0  0
 10  8  1  0  0  0  0
  1  9  1  0  0  0  0
  2 10  1  0  0  0  0
  2  1  1  0  0  0  0
  4 11  2  0  0  0  0
 11 12  1  0  0  0  0
 11 13  1  0  0  0  0
  3 14  1  0  0  0  0
  9 15  2  0  0  0  0
  8 16  1  0  0  0  0
 17  1  1  0  0  0  0
 18  2  1  0  0  0  0
 19  3  1  0  0  0  0
 20  5  1  0  0  0  0
 21  5  1  0  0  0  0
 22  6  1  0  0  0  0
 23  6  1  0  0  0  0
 24  7  1  0  0  0  0
 25  7  1  0  0  0  0
 26  8  1  0  0  0  0
 27 10  1  0  0  0  0
 28 10  1  0  0  0  0
 29 12  1  0  0  0  0
 30 12  1  0  0  0  0
 31 12  1  0  0  0  0
 32 13  1  0  0  0  0
 33 13  1  0  0  0  0
 34 13  1  0  0  0  0
 35 14  1  0  0  0  0
 36 14  1  0  0  0  0
 37 14  1  0  0  0  0
 38 16  1  0  0  0  0
 39 16  1  0  0  0  0
 40 16  1  0  0  0  0
M  END
