
  ACD/Labs07111023183D

 89 91  0  0  0  0  0  0  0  0  1 V2000
   19.1892  -14.2538   -2.0622 C   0  0  0  0  0  0  0  0  0  0  0  0
   18.7794  -15.4508   -2.9854 C   0  0  0  0  0  0  0  0  0  0  0  0
   20.0319  -14.7411   -0.8643 C   0  0  0  0  0  0  0  0  0  0  0  0
   18.8915  -16.8434   -2.3089 C   0  0  0  0  0  0  0  0  0  0  0  0
   21.0374  -15.8328   -1.2675 C   0  0  0  0  0  0  0  0  0  0  0  0
   20.3063  -17.1049   -1.7330 C   0  0  0  0  0  0  0  0  0  0  0  0
   17.1273  -13.0282   -2.7460 C   0  0  0  0  0  0  0  0  0  0  0  0
   16.8759  -13.8943   -3.7371 C   0  0  0  0  0  0  0  0  0  0  0  0
   17.9249  -13.5137   -1.5395 C   0  0  0  0  0  0  0  0  0  0  0  0
   17.3593  -15.3194   -3.6050 C   0  0  0  0  0  0  0  0  0  0  0  0
   15.8794  -12.2439    0.1811 C   0  0  0  0  0  0  0  0  0  0  0  0
   16.6406  -11.5971   -2.8640 C   0  0  0  0  0  0  0  0  0  0  0  0
   17.3446  -12.2063    0.5715 C   0  0  0  0  0  0  0  0  0  0  0  0
   18.2955  -12.3172   -0.6373 C   0  0  0  0  0  0  0  0  0  0  0  0
   19.4816  -19.7478   -0.9232 C   0  0  0  0  0  0  0  0  0  0  0  0
   20.2848  -20.1140   -2.1525 C   0  0  0  0  0  0  0  0  0  0  0  0
   21.1528  -17.8094   -2.6329 O   0  0  0  0  0  0  0  0  0  0  0  0
   21.2758  -19.1681   -2.7320 C   0  0  0  0  0  0  0  0  0  0  0  0
   21.9427  -15.3825   -2.2708 O   0  0  0  0  0  0  0  0  0  0  0  0
   20.0897  -21.3173   -2.7149 C   0  0  0  0  0  0  0  0  0  0  0  0
   20.8666  -21.7400   -3.9433 C   0  0  0  0  0  0  0  0  0  0  0  0
   22.2248  -19.6191   -3.3320 O   0  0  0  0  0  0  0  0  0  0  0  0
   15.2134  -11.1028   -0.0692 C   0  0  0  0  0  0  0  0  0  0  0  0
   13.7503  -11.1312   -0.4594 C   0  0  0  0  0  0  0  0  0  0  0  0
   13.0902   -9.9845    0.0580 O   0  0  0  0  0  0  0  0  0  0  0  0
   20.0468  -13.2941   -2.9009 C   0  0  0  0  0  0  0  0  0  0  0  0
   18.5484  -17.9292   -3.3368 C   0  0  0  0  0  0  0  0  0  0  0  0
   17.8870  -16.9257   -1.1520 C   0  0  0  0  0  0  0  0  0  0  0  0
   15.1760  -13.5816    0.0829 C   0  0  0  0  0  0  0  0  0  0  0  0
   23.2002  -16.0405   -2.1171 C   0  0  0  0  0  0  0  0  0  0  0  0
   25.4660  -15.6721   -1.4933 C   0  0  0  0  0  0  0  0  0  0  0  0
   24.1942  -15.0811   -1.7660 O   0  0  0  0  0  0  0  0  0  0  0  0
   23.5998  -16.7283   -3.4309 C   0  0  0  0  0  0  0  0  0  0  0  0
   25.0093  -17.3433   -3.3225 C   0  0  0  0  0  0  0  0  0  0  0  0
   26.0283  -16.3421   -2.7561 C   0  0  0  0  0  0  0  0  0  0  0  0
   26.2977  -15.3466   -3.7316 O   0  0  0  0  0  0  0  0  0  0  0  0
   24.9734  -18.5037   -2.5087 O   0  0  0  0  0  0  0  0  0  0  0  0
   22.6676  -17.7606   -3.7209 O   0  0  0  0  0  0  0  0  0  0  0  0
   25.3946  -16.6642   -0.3234 C   0  0  0  0  0  0  0  0  0  0  0  0
   19.3451  -22.0141   -2.2730 H   0  0  0  0  0  0  0  0  0  0  0  0
   15.7401  -10.1295    0.0069 H   0  0  0  0  0  0  0  0  0  0  0  0
   23.1136  -16.8067   -1.3129 H   0  0  0  0  0  0  0  0  0  0  0  0
   26.9685  -16.8836   -2.4992 H   0  0  0  0  0  0  0  0  0  0  0  0
   19.5292  -15.3971   -3.8034 H   0  0  0  0  0  0  0  0  0  0  0  0
   20.5920  -13.8783   -0.4446 H   0  0  0  0  0  0  0  0  0  0  0  0
   19.3503  -15.1530   -0.0896 H   0  0  0  0  0  0  0  0  0  0  0  0
   21.7076  -16.0504   -0.4085 H   0  0  0  0  0  0  0  0  0  0  0  0
   20.1689  -17.8042   -0.8807 H   0  0  0  0  0  0  0  0  0  0  0  0
   16.3144  -13.4672   -4.5954 H   0  0  0  0  0  0  0  0  0  0  0  0
   17.3078  -14.2079   -0.9300 H   0  0  0  0  0  0  0  0  0  0  0  0
   17.3657  -15.7688   -4.6211 H   0  0  0  0  0  0  0  0  0  0  0  0
   16.6336  -15.8635   -2.9634 H   0  0  0  0  0  0  0  0  0  0  0  0
   16.4915  -11.1721   -1.8483 H   0  0  0  0  0  0  0  0  0  0  0  0
   17.3962  -10.9932   -3.4108 H   0  0  0  0  0  0  0  0  0  0  0  0
   15.6777  -11.5783   -3.4182 H   0  0  0  0  0  0  0  0  0  0  0  0
   17.5392  -11.2464    1.0960 H   0  0  0  0  0  0  0  0  0  0  0  0
   17.5411  -13.0533    1.2632 H   0  0  0  0  0  0  0  0  0  0  0  0
   19.3346  -12.4514   -0.2677 H   0  0  0  0  0  0  0  0  0  0  0  0
   18.2318  -11.3817   -1.2333 H   0  0  0  0  0  0  0  0  0  0  0  0
   19.9391  -20.2206   -0.0279 H   0  0  0  0  0  0  0  0  0  0  0  0
   19.4791  -18.6437   -0.7982 H   0  0  0  0  0  0  0  0  0  0  0  0
   18.4382  -20.1110   -1.0413 H   0  0  0  0  0  0  0  0  0  0  0  0
   21.6801  -22.4357   -3.6453 H   0  0  0  0  0  0  0  0  0  0  0  0
   20.1838  -22.2520   -4.6548 H   0  0  0  0  0  0  0  0  0  0  0  0
   21.3062  -20.8431   -4.4298 H   0  0  0  0  0  0  0  0  0  0  0  0
   13.6393  -11.1226   -1.5648 H   0  0  0  0  0  0  0  0  0  0  0  0
   13.2512  -12.0325   -0.0436 H   0  0  0  0  0  0  0  0  0  0  0  0
   12.3084  -10.0934    0.6913 H   0  0  0  0  0  0  0  0  0  0  0  0
   20.8127  -12.8187   -2.2513 H   0  0  0  0  0  0  0  0  0  0  0  0
   20.5505  -13.8614   -3.7127 H   0  0  0  0  0  0  0  0  0  0  0  0
   19.3976  -12.5086   -3.3436 H   0  0  0  0  0  0  0  0  0  0  0  0
   18.4049  -18.8999   -2.8156 H   0  0  0  0  0  0  0  0  0  0  0  0
   17.6128  -17.6527   -3.8687 H   0  0  0  0  0  0  0  0  0  0  0  0
   19.3791  -18.0213   -4.0689 H   0  0  0  0  0  0  0  0  0  0  0  0
   18.4213  -17.1980   -0.2167 H   0  0  0  0  0  0  0  0  0  0  0  0
   17.3912  -15.9399   -1.0216 H   0  0  0  0  0  0  0  0  0  0  0  0
   17.1225  -17.6991   -1.3802 H   0  0  0  0  0  0  0  0  0  0  0  0
   15.1187  -14.0444    1.0914 H   0  0  0  0  0  0  0  0  0  0  0  0
   14.1492  -13.4314   -0.3143 H   0  0  0  0  0  0  0  0  0  0  0  0
   15.7446  -14.2495   -0.5991 H   0  0  0  0  0  0  0  0  0  0  0  0
   26.0971  -14.8068   -1.1978 H   0  0  0  0  0  0  0  0  0  0  0  0
   23.5419  -16.0110   -4.2774 H   0  0  0  0  0  0  0  0  0  0  0  0
   25.3435  -17.7009   -4.3198 H   0  0  0  0  0  0  0  0  0  0  0  0
   27.2391  -15.2228   -4.0816 H   0  0  0  0  0  0  0  0  0  0  0  0
   25.2277  -19.4027   -2.8977 H   0  0  0  0  0  0  0  0  0  0  0  0
   22.1207  -17.7242   -4.5716 H   0  0  0  0  0  0  0  0  0  0  0  0
   25.6106  -16.1313    0.6273 H   0  0  0  0  0  0  0  0  0  0  0  0
   24.3769  -17.1078   -0.2762 H   0  0  0  0  0  0  0  0  0  0  0  0
   26.1447  -17.4697   -0.4750 H   0  0  0  0  0  0  0  0  0  0  0  0
  3  1  1  0  0  0  0
  4  2  1  0  0  0  0
  5  3  1  0  0  0  0
  8  7  2  0  0  0  0
 10  8  1  0  0  0  0
  1  9  1  0  0  0  0
  2 10  1  0  0  0  0
  2  1  1  0  0  0  0
 13 11  1  0  0  0  0
  7 12  1  0  0  0  0
 14 13  1  0  0  0  0
  9  7  1  0  0  0  0
  9 14  1  0  0  0  0
  6  4  1  0  0  0  0
 16 15  1  0  0  0  0
 18 17  1  0  0  0  0
 19  5  1  0  0  0  0
  6  5  1  0  0  0  0
 17  6  1  0  0  0  0
 20 16  2  0  0  0  0
 18 16  1  0  0  0  0
 21 20  1  0  0  0  0
 22 18  2  0  0  0  0
 11 23  2  0  0  0  0
 23 24  1  0  0  0  0
 24 25  1  0  0  0  0
  1 26  1  0  0  0  0
  4 27  1  0  0  0  0
  4 28  1  0  0  0  0
 11 29  1  0  0  0  0
 19 30  1  4  0  0  0
 32 31  1  0  0  0  0
 30 33  1  0  0  0  0
 34 33  1  0  0  0  0
 32 30  1  0  0  0  0
 35 31  1  0  0  0  0
 35 34  1  0  0  0  0
 36 35  1  0  0  0  0
 37 34  1  0  0  0  0
 38 33  1  0  0  0  0
 31 39  1  0  0  0  0
 40 20  1  0  0  0  0
 41 23  1  0  0  0  0
 42 30  1  0  0  0  0
 43 35  1  0  0  0  0
 44  2  1  0  0  0  0
 45  3  1  0  0  0  0
 46  3  1  0  0  0  0
 47  5  1  0  0  0  0
 48  6  1  0  0  0  0
 49  8  1  0  0  0  0
 50  9  1  0  0  0  0
 51 10  1  0  0  0  0
 52 10  1  0  0  0  0
 53 12  1  0  0  0  0
 54 12  1  0  0  0  0
 55 12  1  0  0  0  0
 56 13  1  0  0  0  0
 57 13  1  0  0  0  0
 58 14  1  0  0  0  0
 59 14  1  0  0  0  0
 60 15  1  0  0  0  0
 61 15  1  0  0  0  0
 62 15  1  0  0  0  0
 63 21  1  0  0  0  0
 64 21  1  0  0  0  0
 65 21  1  0  0  0  0
 66 24  1  0  0  0  0
 67 24  1  0  0  0  0
 68 25  1  0  0  0  0
 69 26  1  0  0  0  0
 70 26  1  0  0  0  0
 71 26  1  0  0  0  0
 72 27  1  0  0  0  0
 73 27  1  0  0  0  0
 74 27  1  0  0  0  0
 75 28  1  0  0  0  0
 76 28  1  0  0  0  0
 77 28  1  0  0  0  0
 78 29  1  0  0  0  0
 79 29  1  0  0  0  0
 80 29  1  0  0  0  0
 81 31  1  0  0  0  0
 82 33  1  0  0  0  0
 83 34  1  0  0  0  0
 84 36  1  0  0  0  0
 85 37  1  0  0  0  0
 86 38  1  0  0  0  0
 87 39  1  0  0  0  0
 88 39  1  0  0  0  0
 89 39  1  0  0  0  0
M  END
