
  ACD/Labs08281016503D

 68 72  0  0  0  0  0  0  0  0  1 V2000
   12.8977  -11.8176   -1.0702 C   0  0  0  0  0  0  0  0  0  0  0  0
   12.8255  -13.0214   -1.9278 C   0  0  0  0  0  0  0  0  0  0  0  0
   11.8814  -11.5604   -0.2238 C   0  0  0  0  0  0  0  0  0  0  0  0
   11.8326  -14.0809   -1.6164 C   0  0  0  0  0  0  0  0  0  0  0  0
   10.7207  -12.4786   -0.1565 C   0  0  0  0  0  0  0  0  0  0  0  0
   10.8250  -13.8168   -0.7694 C   0  0  0  0  0  0  0  0  0  0  0  0
   14.8874  -11.0715   -2.4435 C   0  0  0  0  0  0  0  0  0  0  0  0
   14.6544  -12.1073   -3.2723 C   0  0  0  0  0  0  0  0  0  0  0  0
   14.1242  -10.8996   -1.1122 C   0  0  0  0  0  0  0  0  0  0  0  0
   13.6537  -13.1456   -2.9738 C   0  0  0  0  0  0  0  0  0  0  0  0
   15.5133   -8.6065   -2.5067 C   0  0  0  0  0  0  0  0  0  0  0  0
   15.9999  -10.0619   -2.7793 C   0  0  0  0  0  0  0  0  0  0  0  0
   14.8998   -8.5069   -1.0979 C   0  0  0  0  0  0  0  0  0  0  0  0
   13.6770   -9.4354   -0.9855 C   0  0  0  0  0  0  0  0  0  0  0  0
   17.6886   -7.9709   -3.8450 C   0  0  0  0  0  0  0  0  0  0  0  0
   16.9012   -8.8179   -4.8741 C   0  0  0  0  0  0  0  0  0  0  0  0
   16.7427   -7.6510   -2.6202 C   0  0  0  0  0  0  0  0  0  0  0  0
   16.4015  -10.1698   -4.2806 C   0  0  0  0  0  0  0  0  0  0  0  0
   17.0424   -5.6710   -4.7069 C   0  0  0  0  0  0  0  0  0  0  0  0
   18.1840   -6.6603   -4.5177 C   0  0  0  0  0  0  0  0  0  0  0  0
   15.9635   -5.5275   -3.6657 C   0  0  0  0  0  0  0  0  0  0  0  0
   16.4217   -6.1722   -2.3689 C   0  0  0  0  0  0  0  0  0  0  0  0
    9.9110  -14.7799   -0.4724 O   0  0  0  0  0  0  0  0  0  0  0  0
   11.9512  -15.4553   -2.2340 C   0  0  0  0  0  0  0  0  0  0  0  0
    9.7052  -12.1453    0.4120 O   0  0  0  0  0  0  0  0  0  0  0  0
   15.0489  -11.2669    0.0557 C   0  0  0  0  0  0  0  0  0  0  0  0
   17.2134  -10.3858   -1.8933 C   0  0  0  0  0  0  0  0  0  0  0  0
   14.4351   -8.2070   -3.5389 C   0  0  0  0  0  0  0  0  0  0  0  0
   18.9141   -8.7480   -3.3536 C   0  0  0  0  0  0  0  0  0  0  0  0
   18.7312   -6.9797   -5.7899 O   0  0  0  0  0  0  0  0  0  0  0  0
   17.0094   -4.9809   -5.7004 O   0  0  0  0  0  0  0  0  0  0  0  0
   15.6822   -4.0466   -3.4204 C   0  0  0  0  0  0  0  0  0  0  0  0
   18.9592   -6.1932   -3.8675 H   0  0  0  0  0  0  0  0  0  0  0  0
   15.0361   -6.0317   -4.0253 H   0  0  0  0  0  0  0  0  0  0  0  0
   11.9946  -10.6392    0.3868 H   0  0  0  0  0  0  0  0  0  0  0  0
   15.2798  -12.1054   -4.1905 H   0  0  0  0  0  0  0  0  0  0  0  0
   13.5161  -14.0729   -3.5701 H   0  0  0  0  0  0  0  0  0  0  0  0
   15.6592   -8.8072   -0.3446 H   0  0  0  0  0  0  0  0  0  0  0  0
   14.5835   -7.4588   -0.9083 H   0  0  0  0  0  0  0  0  0  0  0  0
   12.9570   -9.1986   -1.7978 H   0  0  0  0  0  0  0  0  0  0  0  0
   13.1871   -9.2840    0.0001 H   0  0  0  0  0  0  0  0  0  0  0  0
   16.0228   -8.2303   -5.2167 H   0  0  0  0  0  0  0  0  0  0  0  0
   17.5656   -9.0300   -5.7389 H   0  0  0  0  0  0  0  0  0  0  0  0
   17.3699   -7.8619   -1.7277 H   0  0  0  0  0  0  0  0  0  0  0  0
   17.2142  -10.9211   -4.3765 H   0  0  0  0  0  0  0  0  0  0  0  0
   15.5155  -10.5057   -4.8608 H   0  0  0  0  0  0  0  0  0  0  0  0
   15.6129   -6.0884   -1.6118 H   0  0  0  0  0  0  0  0  0  0  0  0
   17.3302   -5.6495   -2.0005 H   0  0  0  0  0  0  0  0  0  0  0  0
    9.1560  -14.5798    0.1711 H   0  0  0  0  0  0  0  0  0  0  0  0
   11.3743  -15.4854   -3.1831 H   0  0  0  0  0  0  0  0  0  0  0  0
   13.0199  -15.6760   -2.4432 H   0  0  0  0  0  0  0  0  0  0  0  0
   11.5457  -16.2135   -1.5302 H   0  0  0  0  0  0  0  0  0  0  0  0
   15.4942  -12.2685   -0.1258 H   0  0  0  0  0  0  0  0  0  0  0  0
   15.8591  -10.5110    0.1380 H   0  0  0  0  0  0  0  0  0  0  0  0
   14.4626  -11.2879    0.9993 H   0  0  0  0  0  0  0  0  0  0  0  0
   17.9804  -10.9175   -2.4963 H   0  0  0  0  0  0  0  0  0  0  0  0
   17.6439   -9.4417   -1.4960 H   0  0  0  0  0  0  0  0  0  0  0  0
   16.8927  -11.0327   -1.0487 H   0  0  0  0  0  0  0  0  0  0  0  0
   14.5604   -8.8164   -4.4595 H   0  0  0  0  0  0  0  0  0  0  0  0
   13.4265   -8.3882   -3.1094 H   0  0  0  0  0  0  0  0  0  0  0  0
   14.5443   -7.1302   -3.7901 H   0  0  0  0  0  0  0  0  0  0  0  0
   19.2565   -9.4417   -4.1511 H   0  0  0  0  0  0  0  0  0  0  0  0
   19.7301   -8.0351   -3.1077 H   0  0  0  0  0  0  0  0  0  0  0  0
   18.6436   -9.3307   -2.4471 H   0  0  0  0  0  0  0  0  0  0  0  0
   19.7020   -6.7748   -5.9891 H   0  0  0  0  0  0  0  0  0  0  0  0
   15.0538   -3.6478   -4.2453 H   0  0  0  0  0  0  0  0  0  0  0  0
   15.1455   -3.9270   -2.4549 H   0  0  0  0  0  0  0  0  0  0  0  0
   16.6425   -3.4888   -3.3836 H   0  0  0  0  0  0  0  0  0  0  0  0
  3  1  2  0  0  0  0
  4  2  1  0  0  0  0
  5  3  1  0  0  0  0
  6  4  2  0  0  0  0
  6  5  1  0  0  0  0
  8  7  2  0  0  0  0
  9  7  1  0  0  0  0
 10  8  1  0  0  0  0
  1  9  1  0  0  0  0
  2 10  2  0  0  0  0
  2  1  1  0  0  0  0
 13 11  1  0  0  0  0
  7 12  1  0  0  0  0
 14 13  1  0  0  0  0
  9 14  1  0  0  0  0
 16 15  1  0  0  0  0
 18 16  1  0  0  0  0
 11 17  1  0  0  0  0
 12 18  1  0  0  0  0
 12 11  1  0  0  0  0
 20 19  1  0  0  0  0
 21 19  1  0  0  0  0
 15 20  1  0  0  0  0
 22 21  1  0  0  0  0
 17 15  1  0  0  0  0
 17 22  1  0  0  0  0
  6 23  1  0  0  0  0
  4 24  1  0  0  0  0
  5 25  2  0  0  0  0
  9 26  1  0  0  0  0
 12 27  1  0  0  0  0
 11 28  1  0  0  0  0
 15 29  1  0  0  0  0
 20 30  1  0  0  0  0
 19 31  2  0  0  0  0
 21 32  1  0  0  0  0
 33 20  1  0  0  0  0
 34 21  1  0  0  0  0
 35  3  1  0  0  0  0
 36  8  1  0  0  0  0
 37 10  1  0  0  0  0
 38 13  1  0  0  0  0
 39 13  1  0  0  0  0
 40 14  1  0  0  0  0
 41 14  1  0  0  0  0
 42 16  1  0  0  0  0
 43 16  1  0  0  0  0
 44 17  1  0  0  0  0
 45 18  1  0  0  0  0
 46 18  1  0  0  0  0
 47 22  1  0  0  0  0
 48 22  1  0  0  0  0
 49 23  1  0  0  0  0
 50 24  1  0  0  0  0
 51 24  1  0  0  0  0
 52 24  1  0  0  0  0
 53 26  1  0  0  0  0
 54 26  1  0  0  0  0
 55 26  1  0  0  0  0
 56 27  1  0  0  0  0
 57 27  1  0  0  0  0
 58 27  1  0  0  0  0
 59 28  1  0  0  0  0
 60 28  1  0  0  0  0
 61 28  1  0  0  0  0
 62 29  1  0  0  0  0
 63 29  1  0  0  0  0
 64 29  1  0  0  0  0
 65 30  1  0  0  0  0
 66 32  1  0  0  0  0
 67 32  1  0  0  0  0
 68 32  1  0  0  0  0
M  END
