
  ACD/Labs09011020283D

 43 46  0  0  0  0  0  0  0  0  1 V2000
   11.8750  -14.9240   -3.6915 C   0  0  0  0  0  0  0  0  0  0  0  0
   13.2165  -15.3291   -3.2669 C   0  0  0  0  0  0  0  0  0  0  0  0
   10.9243  -15.8917   -3.9543 C   0  0  0  0  0  0  0  0  0  0  0  0
   13.5289  -16.6764   -3.1662 C   0  0  0  0  0  0  0  0  0  0  0  0
   11.2915  -17.3044   -3.7756 C   0  0  0  0  0  0  0  0  0  0  0  0
   12.5863  -17.6270   -3.4664 O   0  0  0  0  0  0  0  0  0  0  0  0
   12.5278  -12.6273   -3.5801 O   0  0  0  0  0  0  0  0  0  0  0  0
   13.7758  -12.9456   -3.1116 C   0  0  0  0  0  0  0  0  0  0  0  0
   11.5741  -13.5776   -3.8362 C   0  0  0  0  0  0  0  0  0  0  0  0
   14.1618  -14.3608   -2.9836 C   0  0  0  0  0  0  0  0  0  0  0  0
   15.4354  -14.7276   -2.5866 C   0  0  0  0  0  0  0  0  0  0  0  0
   15.7529  -16.0756   -2.4775 C   0  0  0  0  0  0  0  0  0  0  0  0
   14.8039  -17.0476   -2.7676 C   0  0  0  0  0  0  0  0  0  0  0  0
   10.3042  -13.2053   -4.2507 C   0  0  0  0  0  0  0  0  0  0  0  0
    9.3545  -14.1773   -4.5256 C   0  0  0  0  0  0  0  0  0  0  0  0
    9.6605  -15.5226   -4.3783 C   0  0  0  0  0  0  0  0  0  0  0  0
    9.9401  -11.7440   -4.4188 C   0  0  0  0  0  0  0  0  0  0  0  0
   10.8282  -10.8491   -3.6593 N   0  0  0  0  0  0  0  0  0  0  0  0
   10.1839   -9.5289   -3.6061 C   0  0  0  0  0  0  0  0  0  0  0  0
   12.1174  -10.6865   -4.3490 C   0  0  0  0  0  0  0  0  0  0  0  0
   14.5512  -12.0712   -2.8024 O   0  0  0  0  0  0  0  0  0  0  0  0
   16.3540  -13.7594   -2.3040 O   0  0  0  0  0  0  0  0  0  0  0  0
   17.7536  -14.0075   -2.3168 C   0  0  0  0  0  0  0  0  0  0  0  0
   10.4525  -18.1708   -3.8798 O   0  0  0  0  0  0  0  0  0  0  0  0
    8.7347  -16.4863   -4.6484 O   0  0  0  0  0  0  0  0  0  0  0  0
    7.3392  -16.2189   -4.6909 C   0  0  0  0  0  0  0  0  0  0  0  0
   16.7725  -16.3782   -2.1563 H   0  0  0  0  0  0  0  0  0  0  0  0
   15.0651  -18.1239   -2.6805 H   0  0  0  0  0  0  0  0  0  0  0  0
    8.3409  -13.8759   -4.8663 H   0  0  0  0  0  0  0  0  0  0  0  0
   10.0111  -11.4688   -5.4928 H   0  0  0  0  0  0  0  0  0  0  0  0
    8.9006  -11.5810   -4.0621 H   0  0  0  0  0  0  0  0  0  0  0  0
    9.6468   -9.3406   -4.5603 H   0  0  0  0  0  0  0  0  0  0  0  0
    9.4606   -9.5040   -2.7630 H   0  0  0  0  0  0  0  0  0  0  0  0
   10.9574   -8.7455   -3.4558 H   0  0  0  0  0  0  0  0  0  0  0  0
   11.9380  -10.3697   -5.3988 H   0  0  0  0  0  0  0  0  0  0  0  0
   12.7214   -9.9136   -3.8271 H   0  0  0  0  0  0  0  0  0  0  0  0
   12.6649  -11.6533   -4.3426 H   0  0  0  0  0  0  0  0  0  0  0  0
   18.1449  -13.8666   -3.3471 H   0  0  0  0  0  0  0  0  0  0  0  0
   18.2613  -13.2989   -1.6278 H   0  0  0  0  0  0  0  0  0  0  0  0
   17.9474  -15.0506   -1.9866 H   0  0  0  0  0  0  0  0  0  0  0  0
    7.0444  -15.9556   -5.7292 H   0  0  0  0  0  0  0  0  0  0  0  0
    6.7795  -17.1217   -4.3647 H   0  0  0  0  0  0  0  0  0  0  0  0
    7.1042  -15.3706   -4.0129 H   0  0  0  0  0  0  0  0  0  0  0  0
  5  3  1  0  0  0  0
  6  4  1  0  0  0  0
  6  5  1  0  0  0  0
  8  7  1  0  0  0  0
  9  7  1  0  0  0  0
 10  8  1  0  0  0  0
  2  1  1  0  0  0  0
 11 10  2  0  0  0  0
  2 10  1  0  0  0  0
 12 11  1  0  0  0  0
  4  2  2  0  0  0  0
 13 12  2  0  0  0  0
 13  4  1  0  0  0  0
  9 14  2  0  0  0  0
 15 14  1  0  0  0  0
  1  9  1  0  0  0  0
 16 15  2  0  0  0  0
  3  1  2  0  0  0  0
  3 16  1  0  0  0  0
 14 17  1  0  0  0  0
 17 18  1  0  0  0  0
 18 19  1  0  0  0  0
 18 20  1  0  0  0  0
  8 21  2  0  0  0  0
 11 22  1  0  0  0  0
 22 23  1  0  0  0  0
  5 24  2  0  0  0  0
 16 25  1  0  0  0  0
 25 26  1  0  0  0  0
 27 12  1  0  0  0  0
 28 13  1  0  0  0  0
 29 15  1  0  0  0  0
 30 17  1  0  0  0  0
 31 17  1  0  0  0  0
 32 19  1  0  0  0  0
 33 19  1  0  0  0  0
 34 19  1  0  0  0  0
 35 20  1  0  0  0  0
 36 20  1  0  0  0  0
 37 20  1  0  0  0  0
 38 23  1  0  0  0  0
 39 23  1  0  0  0  0
 40 23  1  0  0  0  0
 41 26  1  0  0  0  0
 42 26  1  0  0  0  0
 43 26  1  0  0  0  0
M  END
