
  ACD/Labs08291009363D

 28 31  0  0  0  0  0  0  0  0  1 V2000
   13.5994  -14.2326    0.3217 C   0  0  0  0  0  0  0  0  0  0  0  0
   14.9732  -14.2574    0.1415 C   0  0  0  0  0  0  0  0  0  0  0  0
   12.8954  -15.4256    0.4202 C   0  0  0  0  0  0  0  0  0  0  0  0
   15.6353  -15.4685    0.0638 C   0  0  0  0  0  0  0  0  0  0  0  0
   13.5645  -16.6384    0.3458 C   0  0  0  0  0  0  0  0  0  0  0  0
   14.9388  -16.6630    0.1707 C   0  0  0  0  0  0  0  0  0  0  0  0
   15.7665  -13.0167    0.0286 C   0  0  0  0  0  0  0  0  0  0  0  0
   17.1255  -13.0998   -0.1499 O   0  0  0  0  0  0  0  0  0  0  0  0
   17.0910  -15.4887   -0.1202 C   0  0  0  0  0  0  0  0  0  0  0  0
   17.7913  -14.2961   -0.2230 C   0  0  0  0  0  0  0  0  0  0  0  0
   17.7518  -16.7014   -0.1830 C   0  0  0  0  0  0  0  0  0  0  0  0
   19.1265  -16.7360   -0.3427 C   0  0  0  0  0  0  0  0  0  0  0  0
   19.1686  -14.3281   -0.3902 C   0  0  0  0  0  0  0  0  0  0  0  0
   19.8338  -15.5471   -0.4454 C   0  0  0  0  0  0  0  0  0  0  0  0
   16.9596  -17.9397   -0.0774 C   0  0  0  0  0  0  0  0  0  0  0  0
   15.6060  -17.8597    0.1146 O   0  0  0  0  0  0  0  0  0  0  0  0
   15.2228  -11.9371    0.0867 O   0  0  0  0  0  0  0  0  0  0  0  0
   11.5457  -15.4099    0.5897 O   0  0  0  0  0  0  0  0  0  0  0  0
   12.8744  -17.8057    0.4492 O   0  0  0  0  0  0  0  0  0  0  0  0
   17.4986  -19.0177   -0.1752 O   0  0  0  0  0  0  0  0  0  0  0  0
   21.1846  -15.5755   -0.6007 O   0  0  0  0  0  0  0  0  0  0  0  0
   19.8705  -13.1679   -0.4926 O   0  0  0  0  0  0  0  0  0  0  0  0
   13.0648  -13.2608    0.3868 H   0  0  0  0  0  0  0  0  0  0  0  0
   19.6581  -17.7105   -0.3881 H   0  0  0  0  0  0  0  0  0  0  0  0
   11.0345  -16.2804    0.6609 H   0  0  0  0  0  0  0  0  0  0  0  0
   13.3647  -18.6895    0.3982 H   0  0  0  0  0  0  0  0  0  0  0  0
   21.7036  -14.7100   -0.6758 H   0  0  0  0  0  0  0  0  0  0  0  0
   20.8755  -13.1931   -0.6088 H   0  0  0  0  0  0  0  0  0  0  0  0
  2  1  1  0  0  0  0
  3  1  2  0  0  0  0
  4  2  2  0  0  0  0
  5  3  1  0  0  0  0
  6  5  2  0  0  0  0
  7  2  1  0  0  0  0
  8  7  1  0  0  0  0
 10  8  1  0  0  0  0
 10  9  1  0  0  0  0
 12 11  1  0  0  0  0
 13 10  2  0  0  0  0
 14 12  2  0  0  0  0
 14 13  1  0  0  0  0
  4  9  1  0  0  0  0
 11  9  2  0  0  0  0
  6  4  1  0  0  0  0
 15 11  1  0  0  0  0
 16  6  1  0  0  0  0
 16 15  1  0  0  0  0
  7 17  2  0  0  0  0
  3 18  1  0  0  0  0
  5 19  1  0  0  0  0
 15 20  2  0  0  0  0
 14 21  1  0  0  0  0
 13 22  1  0  0  0  0
 23  1  1  0  0  0  0
 24 12  1  0  0  0  0
 25 18  1  0  0  0  0
 26 19  1  0  0  0  0
 27 21  1  0  0  0  0
 28 22  1  0  0  0  0
M  END
