
  ACD/Labs08301023353D

 39 41  0  0  0  0  0  0  0  0  1 V2000
   16.2734  -18.8626   -1.7429 C   0  0  0  0  0  0  0  0  0  0  0  0
   16.0750  -17.3566   -2.2111 C   0  0  0  0  0  0  0  0  0  0  0  0
   16.2145  -18.2469   -0.3175 C   0  0  0  0  0  0  0  0  0  0  0  0
   14.5829  -16.9265   -2.0686 C   0  0  0  0  0  0  0  0  0  0  0  0
   14.8033  -17.9725    0.2403 C   0  0  0  0  0  0  0  0  0  0  0  0
   13.8567  -17.7009   -0.9422 C   0  0  0  0  0  0  0  0  0  0  0  0
   18.7829  -18.3485   -1.7414 C   0  0  0  0  0  0  0  0  0  0  0  0
   18.3785  -17.2116   -1.1567 C   0  0  0  0  0  0  0  0  0  0  0  0
   17.7095  -19.3739   -2.1111 C   0  0  0  0  0  0  0  0  0  0  0  0
   16.8766  -17.0531   -0.9409 C   0  0  0  0  0  0  0  0  0  0  0  0
   17.0662  -18.9777    0.7429 C   0  0  0  0  0  0  0  0  0  0  0  0
   14.4056  -15.3983   -1.9682 C   0  0  0  0  0  0  0  0  0  0  0  0
   12.9279  -15.0307   -2.1361 C   0  0  0  0  0  0  0  0  0  0  0  0
   14.9247  -14.8356   -0.6407 C   0  0  0  0  0  0  0  0  0  0  0  0
   19.3578  -16.1430   -0.7374 C   0  0  0  0  0  0  0  0  0  0  0  0
   15.6440  -19.7224   -2.0575 H   0  0  0  0  0  0  0  0  0  0  0  0
   16.3363  -16.9465   -3.2100 H   0  0  0  0  0  0  0  0  0  0  0  0
   14.0703  -17.2084   -3.0131 H   0  0  0  0  0  0  0  0  0  0  0  0
   14.4462  -18.8569    0.8101 H   0  0  0  0  0  0  0  0  0  0  0  0
   14.8298  -17.0862    0.9096 H   0  0  0  0  0  0  0  0  0  0  0  0
   12.9941  -17.0999   -0.5831 H   0  0  0  0  0  0  0  0  0  0  0  0
   13.4918  -18.6710   -1.3424 H   0  0  0  0  0  0  0  0  0  0  0  0
   19.8793  -18.4313   -1.9008 H   0  0  0  0  0  0  0  0  0  0  0  0
   17.9196  -20.3158   -1.5607 H   0  0  0  0  0  0  0  0  0  0  0  0
   17.7664  -19.5626   -3.2045 H   0  0  0  0  0  0  0  0  0  0  0  0
   16.8539  -16.0680   -0.4278 H   0  0  0  0  0  0  0  0  0  0  0  0
   17.0423  -18.4056    1.6951 H   0  0  0  0  0  0  0  0  0  0  0  0
   16.6534  -19.9953    0.9119 H   0  0  0  0  0  0  0  0  0  0  0  0
   18.1151  -19.0566    0.3847 H   0  0  0  0  0  0  0  0  0  0  0  0
   15.0060  -14.9388   -2.7823 H   0  0  0  0  0  0  0  0  0  0  0  0
   12.5502  -14.5773   -1.1947 H   0  0  0  0  0  0  0  0  0  0  0  0
   12.8201  -14.3016   -2.9675 H   0  0  0  0  0  0  0  0  0  0  0  0
   12.3427  -15.9467   -2.3666 H   0  0  0  0  0  0  0  0  0  0  0  0
   14.1536  -14.9752    0.1470 H   0  0  0  0  0  0  0  0  0  0  0  0
   15.8531  -15.3721   -0.3493 H   0  0  0  0  0  0  0  0  0  0  0  0
   15.1424  -13.7524   -0.7579 H   0  0  0  0  0  0  0  0  0  0  0  0
   19.3120  -16.0112    0.3649 H   0  0  0  0  0  0  0  0  0  0  0  0
   20.3853  -16.4468   -1.0317 H   0  0  0  0  0  0  0  0  0  0  0  0
   19.0961  -15.1851   -1.2360 H   0  0  0  0  0  0  0  0  0  0  0  0
  3  1  1  0  0  0  0
  4  2  1  0  0  0  0
  5  3  1  0  0  0  0
  6  4  1  0  0  0  0
  6  5  1  0  0  0  0
  8  7  2  0  0  0  0
  9  7  1  0  0  0  0
 10  8  1  0  0  0  0
  1  9  1  0  0  0  0
  2 10  1  0  0  0  0
  2  1  1  0  0  0  0
  3 11  1  0  0  0  0
  4 12  1  0  0  0  0
 12 13  1  0  0  0  0
 12 14  1  0  0  0  0
  8 15  1  0  0  0  0
  3 10  1  0  0  0  0
 16  1  1  0  0  0  0
 17  2  1  0  0  0  0
 18  4  1  0  0  0  0
 19  5  1  0  0  0  0
 20  5  1  0  0  0  0
 21  6  1  0  0  0  0
 22  6  1  0  0  0  0
 23  7  1  0  0  0  0
 24  9  1  0  0  0  0
 25  9  1  0  0  0  0
 26 10  1  0  0  0  0
 27 11  1  0  0  0  0
 28 11  1  0  0  0  0
 29 11  1  0  0  0  0
 30 12  1  0  0  0  0
 31 13  1  0  0  0  0
 32 13  1  0  0  0  0
 33 13  1  0  0  0  0
 34 14  1  0  0  0  0
 35 14  1  0  0  0  0
 36 14  1  0  0  0  0
 37 15  1  0  0  0  0
 38 15  1  0  0  0  0
 39 15  1  0  0  0  0
M  END
