
  ACD/Labs07101015463D

 45 48  0  0  0  0  0  0  0  0  1 V2000
   18.9245  -13.2183    1.7748 C   0  0  0  0  0  0  0  0  0  0  0  0
   19.3998  -13.3291    0.4708 C   0  0  0  0  0  0  0  0  0  0  0  0
   17.6406  -12.7543    2.0019 C   0  0  0  0  0  0  0  0  0  0  0  0
   18.5759  -12.9743   -0.5916 C   0  0  0  0  0  0  0  0  0  0  0  0
   16.8256  -12.4011    0.9398 C   0  0  0  0  0  0  0  0  0  0  0  0
   17.2898  -12.5126   -0.3622 C   0  0  0  0  0  0  0  0  0  0  0  0
   21.2451  -13.7446    2.5706 C   0  0  0  0  0  0  0  0  0  0  0  0
   21.3283  -14.5854    1.3644 N   0  0  0  0  0  0  0  0  0  0  0  0
   19.7770  -13.6012    2.9685 C   0  0  0  0  0  0  0  0  0  0  0  0
   20.8196  -13.8341    0.2007 C   0  0  0  0  0  0  0  0  0  0  0  0
   22.7414  -14.9852    1.2123 C   0  0  0  0  0  0  0  0  0  0  0  0
   23.1000  -15.4655   -0.1808 C   0  0  0  0  0  0  0  0  0  0  0  0
   22.1990  -15.3513   -1.2327 C   0  0  0  0  0  0  0  0  0  0  0  0
   20.8213  -14.7640   -1.0180 C   0  0  0  0  0  0  0  0  0  0  0  0
   24.3558  -16.0122   -0.3970 C   0  0  0  0  0  0  0  0  0  0  0  0
   24.7150  -16.4379   -1.6677 C   0  0  0  0  0  0  0  0  0  0  0  0
   23.8193  -16.3195   -2.7176 C   0  0  0  0  0  0  0  0  0  0  0  0
   22.5629  -15.7789   -2.4992 C   0  0  0  0  0  0  0  0  0  0  0  0
   15.5667  -11.9478    1.1784 O   0  0  0  0  0  0  0  0  0  0  0  0
   16.4951  -12.1691   -1.4166 O   0  0  0  0  0  0  0  0  0  0  0  0
   25.2247  -16.1208    0.6501 O   0  0  0  0  0  0  0  0  0  0  0  0
   25.9470  -16.9717   -1.8831 O   0  0  0  0  0  0  0  0  0  0  0  0
   26.5133  -16.7098    0.5247 C   0  0  0  0  0  0  0  0  0  0  0  0
   15.0855  -12.3550   -1.3916 C   0  0  0  0  0  0  0  0  0  0  0  0
   17.2621  -12.6650    3.0426 H   0  0  0  0  0  0  0  0  0  0  0  0
   18.9491  -13.0606   -1.6345 H   0  0  0  0  0  0  0  0  0  0  0  0
   21.8218  -14.2287    3.3875 H   0  0  0  0  0  0  0  0  0  0  0  0
   21.6841  -12.7489    2.3464 H   0  0  0  0  0  0  0  0  0  0  0  0
   19.6837  -12.8126    3.7454 H   0  0  0  0  0  0  0  0  0  0  0  0
   19.4122  -14.5683    3.3760 H   0  0  0  0  0  0  0  0  0  0  0  0
   21.4922  -12.9642    0.0416 H   0  0  0  0  0  0  0  0  0  0  0  0
   23.3707  -14.1045    1.4629 H   0  0  0  0  0  0  0  0  0  0  0  0
   22.9414  -15.8024    1.9379 H   0  0  0  0  0  0  0  0  0  0  0  0
   20.0981  -15.5913   -0.8541 H   0  0  0  0  0  0  0  0  0  0  0  0
   20.5289  -14.1897   -1.9230 H   0  0  0  0  0  0  0  0  0  0  0  0
   24.1088  -16.6583   -3.7353 H   0  0  0  0  0  0  0  0  0  0  0  0
   21.8449  -15.6881   -3.3422 H   0  0  0  0  0  0  0  0  0  0  0  0
   14.9664  -11.6909    0.4053 H   0  0  0  0  0  0  0  0  0  0  0  0
   26.2089  -17.2822   -2.8100 H   0  0  0  0  0  0  0  0  0  0  0  0
   27.2641  -15.9170    0.3196 H   0  0  0  0  0  0  0  0  0  0  0  0
   26.7750  -17.2320    1.4699 H   0  0  0  0  0  0  0  0  0  0  0  0
   26.5066  -17.4392   -0.3135 H   0  0  0  0  0  0  0  0  0  0  0  0
   14.5808  -11.3828   -1.5776 H   0  0  0  0  0  0  0  0  0  0  0  0
   14.7940  -13.0805   -2.1811 H   0  0  0  0  0  0  0  0  0  0  0  0
   14.7815  -12.7457   -0.3969 H   0  0  0  0  0  0  0  0  0  0  0  0
  3  1  2  0  0  0  0
  4  2  2  0  0  0  0
  5  3  1  0  0  0  0
  6  4  1  0  0  0  0
  6  5  2  0  0  0  0
  8  7  1  0  0  0  0
  9  7  1  0  0  0  0
  1  9  1  0  0  0  0
  2 10  1  0  0  0  0
  2  1  1  0  0  0  0
 12 11  1  0  0  0  0
  8 11  1  0  0  0  0
 10  8  1  0  0  0  0
 14 13  1  0  0  0  0
 14 10  1  0  0  0  0
 16 15  1  0  0  0  0
 12 15  2  0  0  0  0
 17 16  2  0  0  0  0
 13 12  1  0  0  0  0
 18 17  1  0  0  0  0
 18 13  2  0  0  0  0
  5 19  1  0  0  0  0
  6 20  1  0  0  0  0
 15 21  1  0  0  0  0
 16 22  1  0  0  0  0
 21 23  1  0  0  0  0
 20 24  1  0  0  0  0
 25  3  1  0  0  0  0
 26  4  1  0  0  0  0
 27  7  1  0  0  0  0
 28  7  1  0  0  0  0
 29  9  1  0  0  0  0
 30  9  1  0  0  0  0
 31 10  1  0  0  0  0
 32 11  1  0  0  0  0
 33 11  1  0  0  0  0
 34 14  1  0  0  0  0
 35 14  1  0  0  0  0
 36 17  1  0  0  0  0
 37 18  1  0  0  0  0
 38 19  1  0  0  0  0
 39 22  1  0  0  0  0
 40 23  1  0  0  0  0
 41 23  1  0  0  0  0
 42 23  1  0  0  0  0
 43 24  1  0  0  0  0
 44 24  1  0  0  0  0
 45 24  1  0  0  0  0
M  END
