
  ACD/Labs08281017103D

 83 87  0  0  0  0  0  0  0  0  1 V2000
   12.2069  -11.4225   -2.2401 C   0  0  0  0  0  0  0  0  0  0  0  0
   11.9227  -12.8461   -2.7972 C   0  0  0  0  0  0  0  0  0  0  0  0
   11.1761  -10.9868   -1.1866 C   0  0  0  0  0  0  0  0  0  0  0  0
   10.4656  -12.9118   -3.3304 C   0  0  0  0  0  0  0  0  0  0  0  0
    9.7783  -11.0374   -1.8050 C   0  0  0  0  0  0  0  0  0  0  0  0
    9.4814  -12.4760   -2.2282 C   0  0  0  0  0  0  0  0  0  0  0  0
   14.6347  -11.5703   -2.9242 C   0  0  0  0  0  0  0  0  0  0  0  0
   14.3782  -12.9927   -3.4728 C   0  0  0  0  0  0  0  0  0  0  0  0
   13.6668  -11.2341   -1.7559 C   0  0  0  0  0  0  0  0  0  0  0  0
   12.9159  -13.1437   -3.9424 C   0  0  0  0  0  0  0  0  0  0  0  0
   16.2885   -9.8196   -2.0769 C   0  0  0  0  0  0  0  0  0  0  0  0
   16.1305  -11.2954   -2.5791 C   0  0  0  0  0  0  0  0  0  0  0  0
   15.3441   -9.5726   -0.8863 C   0  0  0  0  0  0  0  0  0  0  0  0
   13.8837   -9.7803   -1.3135 C   0  0  0  0  0  0  0  0  0  0  0  0
   18.8362  -10.2812   -2.5217 C   0  0  0  0  0  0  0  0  0  0  0  0
   18.2292  -10.5676   -3.9082 C   0  0  0  0  0  0  0  0  0  0  0  0
   17.7629   -9.5735   -1.6222 C   0  0  0  0  0  0  0  0  0  0  0  0
   17.0017  -11.5065   -3.8420 C   0  0  0  0  0  0  0  0  0  0  0  0
   20.4384   -8.7631   -1.3288 C   0  0  0  0  0  0  0  0  0  0  0  0
   20.0698   -9.3759   -2.6841 C   0  0  0  0  0  0  0  0  0  0  0  0
   19.4152   -7.6644   -1.0014 C   0  0  0  0  0  0  0  0  0  0  0  0
   17.9944   -8.0531   -1.4521 C   0  0  0  0  0  0  0  0  0  0  0  0
    8.1542  -12.5553   -2.7274 O   0  0  0  0  0  0  0  0  0  0  0  0
   10.1384  -14.3491   -3.7541 C   0  0  0  0  0  0  0  0  0  0  0  0
   12.0959  -13.8950   -1.6812 C   0  0  0  0  0  0  0  0  0  0  0  0
   13.9404  -12.1669   -0.5605 C   0  0  0  0  0  0  0  0  0  0  0  0
   16.5866  -12.2698   -1.4789 C   0  0  0  0  0  0  0  0  0  0  0  0
   15.9305   -8.8490   -3.2247 C   0  0  0  0  0  0  0  0  0  0  0  0
   19.2682  -11.5957   -1.8601 C   0  0  0  0  0  0  0  0  0  0  0  0
   19.4227   -7.3856    0.5020 C   0  0  0  0  0  0  0  0  0  0  0  0
   19.8030   -6.3886   -1.7488 C   0  0  0  0  0  0  0  0  0  0  0  0
   10.3665  -12.2284   -4.2043 H   0  0  0  0  0  0  0  0  0  0  0  0
    9.5929  -13.1476   -1.3471 H   0  0  0  0  0  0  0  0  0  0  0  0
   12.0806  -10.7250   -3.0956 H   0  0  0  0  0  0  0  0  0  0  0  0
   11.2200  -11.6733   -0.3142 H   0  0  0  0  0  0  0  0  0  0  0  0
   11.3966   -9.9499   -0.8542 H   0  0  0  0  0  0  0  0  0  0  0  0
    9.0265  -10.7051   -1.0575 H   0  0  0  0  0  0  0  0  0  0  0  0
    9.7380  -10.3709   -2.6930 H   0  0  0  0  0  0  0  0  0  0  0  0
   14.4009  -10.8711   -3.7553 H   0  0  0  0  0  0  0  0  0  0  0  0
   15.0570  -13.1802   -4.3321 H   0  0  0  0  0  0  0  0  0  0  0  0
   14.5809  -13.7349   -2.6712 H   0  0  0  0  0  0  0  0  0  0  0  0
   12.7567  -14.1841   -4.2982 H   0  0  0  0  0  0  0  0  0  0  0  0
   12.7296  -12.4339   -4.7765 H   0  0  0  0  0  0  0  0  0  0  0  0
   15.5902  -10.2832   -0.0684 H   0  0  0  0  0  0  0  0  0  0  0  0
   15.4743   -8.5305   -0.5239 H   0  0  0  0  0  0  0  0  0  0  0  0
   13.6477   -9.0997   -2.1594 H   0  0  0  0  0  0  0  0  0  0  0  0
   13.2140   -9.5530   -0.4567 H   0  0  0  0  0  0  0  0  0  0  0  0
   17.9165   -9.6034   -4.3630 H   0  0  0  0  0  0  0  0  0  0  0  0
   19.0074  -11.0422   -4.5434 H   0  0  0  0  0  0  0  0  0  0  0  0
   17.9053  -10.0492   -0.6283 H   0  0  0  0  0  0  0  0  0  0  0  0
   17.3626  -12.5572   -3.8493 H   0  0  0  0  0  0  0  0  0  0  0  0
   16.3718  -11.3245   -4.7388 H   0  0  0  0  0  0  0  0  0  0  0  0
   20.4120   -9.5482   -0.5433 H   0  0  0  0  0  0  0  0  0  0  0  0
   21.4579   -8.3246   -1.3809 H   0  0  0  0  0  0  0  0  0  0  0  0
   20.9246   -9.9771   -3.0611 H   0  0  0  0  0  0  0  0  0  0  0  0
   19.8414   -8.5628   -3.4060 H   0  0  0  0  0  0  0  0  0  0  0  0
   17.7960   -7.5599   -2.4276 H   0  0  0  0  0  0  0  0  0  0  0  0
   17.2771   -7.6749   -0.6926 H   0  0  0  0  0  0  0  0  0  0  0  0
    7.4804  -13.1629   -2.2791 H   0  0  0  0  0  0  0  0  0  0  0  0
    9.8923  -14.3685   -4.8374 H   0  0  0  0  0  0  0  0  0  0  0  0
   11.0178  -15.0006   -3.5625 H   0  0  0  0  0  0  0  0  0  0  0  0
    9.2680  -14.7179   -3.1701 H   0  0  0  0  0  0  0  0  0  0  0  0
   12.0699  -14.9138   -2.1237 H   0  0  0  0  0  0  0  0  0  0  0  0
   13.0713  -13.7368   -1.1730 H   0  0  0  0  0  0  0  0  0  0  0  0
   11.2712  -13.7904   -0.9439 H   0  0  0  0  0  0  0  0  0  0  0  0
   14.2622  -13.1626   -0.9342 H   0  0  0  0  0  0  0  0  0  0  0  0
   14.7434  -11.7317    0.0722 H   0  0  0  0  0  0  0  0  0  0  0  0
   13.0129  -12.2793    0.0410 H   0  0  0  0  0  0  0  0  0  0  0  0
   17.2443  -13.0476   -1.9228 H   0  0  0  0  0  0  0  0  0  0  0  0
   17.1479  -11.7112   -0.6994 H   0  0  0  0  0  0  0  0  0  0  0  0
   15.6972  -12.7540   -1.0216 H   0  0  0  0  0  0  0  0  0  0  0  0
   16.2567   -9.2850   -4.1932 H   0  0  0  0  0  0  0  0  0  0  0  0
   14.8314   -8.6871   -3.2431 H   0  0  0  0  0  0  0  0  0  0  0  0
   16.4467   -7.8784   -3.0631 H   0  0  0  0  0  0  0  0  0  0  0  0
   19.5474  -12.3307   -2.6451 H   0  0  0  0  0  0  0  0  0  0  0  0
   20.1427  -11.4081   -1.2007 H   0  0  0  0  0  0  0  0  0  0  0  0
   18.4274  -12.0000   -1.2566 H   0  0  0  0  0  0  0  0  0  0  0  0
   19.2164   -6.3084    0.6795 H   0  0  0  0  0  0  0  0  0  0  0  0
   18.6389   -7.9990    0.9960 H   0  0  0  0  0  0  0  0  0  0  0  0
   20.4181   -7.6460    0.9217 H   0  0  0  0  0  0  0  0  0  0  0  0
   19.3620   -6.4087   -2.7685 H   0  0  0  0  0  0  0  0  0  0  0  0
   19.4181   -5.5047   -1.1964 H   0  0  0  0  0  0  0  0  0  0  0  0
   20.9097   -6.3265   -1.8253 H   0  0  0  0  0  0  0  0  0  0  0  0
  3  1  1  0  0  0  0
  4  2  1  0  0  0  0
  5  3  1  0  0  0  0
  6  4  1  0  0  0  0
  6  5  1  0  0  0  0
  8  7  1  0  0  0  0
 10  8  1  0  0  0  0
  1  9  1  0  0  0  0
  2 10  1  0  0  0  0
  2  1  1  0  0  0  0
 13 11  1  0  0  0  0
  7 12  1  0  0  0  0
 14 13  1  0  0  0  0
  9  7  1  0  0  0  0
  9 14  1  0  0  0  0
 16 15  1  0  0  0  0
 18 16  1  0  0  0  0
 11 17  1  0  0  0  0
 12 18  1  0  0  0  0
 12 11  1  0  0  0  0
 20 19  1  0  0  0  0
 21 19  1  0  0  0  0
 15 20  1  0  0  0  0
 22 21  1  0  0  0  0
 17 15  1  0  0  0  0
 17 22  1  0  0  0  0
  6 23  1  0  0  0  0
  4 24  1  0  0  0  0
  2 25  1  0  0  0  0
  9 26  1  0  0  0  0
 12 27  1  0  0  0  0
 11 28  1  0  0  0  0
 15 29  1  0  0  0  0
 21 30  1  0  0  0  0
 21 31  1  0  0  0  0
 32  4  1  0  0  0  0
 33  6  1  0  0  0  0
 34  1  1  0  0  0  0
 35  3  1  0  0  0  0
 36  3  1  0  0  0  0
 37  5  1  0  0  0  0
 38  5  1  0  0  0  0
 39  7  1  0  0  0  0
 40  8  1  0  0  0  0
 41  8  1  0  0  0  0
 42 10  1  0  0  0  0
 43 10  1  0  0  0  0
 44 13  1  0  0  0  0
 45 13  1  0  0  0  0
 46 14  1  0  0  0  0
 47 14  1  0  0  0  0
 48 16  1  0  0  0  0
 49 16  1  0  0  0  0
 50 17  1  0  0  0  0
 51 18  1  0  0  0  0
 52 18  1  0  0  0  0
 53 19  1  0  0  0  0
 54 19  1  0  0  0  0
 55 20  1  0  0  0  0
 56 20  1  0  0  0  0
 57 22  1  0  0  0  0
 58 22  1  0  0  0  0
 59 23  1  0  0  0  0
 60 24  1  0  0  0  0
 61 24  1  0  0  0  0
 62 24  1  0  0  0  0
 63 25  1  0  0  0  0
 64 25  1  0  0  0  0
 65 25  1  0  0  0  0
 66 26  1  0  0  0  0
 67 26  1  0  0  0  0
 68 26  1  0  0  0  0
 69 27  1  0  0  0  0
 70 27  1  0  0  0  0
 71 27  1  0  0  0  0
 72 28  1  0  0  0  0
 73 28  1  0  0  0  0
 74 28  1  0  0  0  0
 75 29  1  0  0  0  0
 76 29  1  0  0  0  0
 77 29  1  0  0  0  0
 78 30  1  0  0  0  0
 79 30  1  0  0  0  0
 80 30  1  0  0  0  0
 81 31  1  0  0  0  0
 82 31  1  0  0  0  0
 83 31  1  0  0  0  0
M  END
