
  ACD/Labs08291009403D

 32 34  0  0  0  0  0  0  0  0  1 V2000
   14.8198  -14.1140   -0.0588 C   0  0  0  0  0  0  0  0  0  0  0  0
   14.7678  -15.4986   -0.0882 C   0  0  0  0  0  0  0  0  0  0  0  0
   13.6407  -13.3844   -0.0803 C   0  0  0  0  0  0  0  0  0  0  0  0
   13.5513  -16.1585   -0.1310 C   0  0  0  0  0  0  0  0  0  0  0  0
   12.4211  -14.0429   -0.1275 C   0  0  0  0  0  0  0  0  0  0  0  0
   12.3744  -15.4276   -0.1514 C   0  0  0  0  0  0  0  0  0  0  0  0
   17.2423  -14.1346   -0.0684 C   0  0  0  0  0  0  0  0  0  0  0  0
   17.2830  -15.4799   -0.1031 C   0  0  0  0  0  0  0  0  0  0  0  0
   16.0361  -13.4794   -0.0112 O   0  0  0  0  0  0  0  0  0  0  0  0
   16.0293  -16.2378   -0.0664 C   0  0  0  0  0  0  0  0  0  0  0  0
   18.5026  -13.3617   -0.0793 C   0  0  0  0  0  0  0  0  0  0  0  0
   18.4661  -11.9765   -0.1099 C   0  0  0  0  0  0  0  0  0  0  0  0
   19.7265  -14.0171   -0.0516 C   0  0  0  0  0  0  0  0  0  0  0  0
   19.6487  -11.2509   -0.1098 C   0  0  0  0  0  0  0  0  0  0  0  0
   20.9063  -13.2935   -0.0555 C   0  0  0  0  0  0  0  0  0  0  0  0
   20.8674  -11.9094   -0.0827 C   0  0  0  0  0  0  0  0  0  0  0  0
   11.2635  -13.3294   -0.1469 O   0  0  0  0  0  0  0  0  0  0  0  0
   13.5101  -17.5168   -0.1538 O   0  0  0  0  0  0  0  0  0  0  0  0
   16.0417  -17.4466    0.0000 O   0  0  0  0  0  0  0  0  0  0  0  0
   18.4762  -16.1282   -0.1533 O   0  0  0  0  0  0  0  0  0  0  0  0
   22.0248  -11.1966   -0.0817 O   0  0  0  0  0  0  0  0  0  0  0  0
   19.6169   -9.8921   -0.1348 O   0  0  0  0  0  0  0  0  0  0  0  0
   13.6731  -12.2741   -0.0598 H   0  0  0  0  0  0  0  0  0  0  0  0
   11.3949  -15.9508   -0.1868 H   0  0  0  0  0  0  0  0  0  0  0  0
   17.4892  -11.4479   -0.1344 H   0  0  0  0  0  0  0  0  0  0  0  0
   19.7620  -15.1273   -0.0263 H   0  0  0  0  0  0  0  0  0  0  0  0
   21.8829  -13.8229   -0.0367 H   0  0  0  0  0  0  0  0  0  0  0  0
   10.3734  -13.8099   -0.1786 H   0  0  0  0  0  0  0  0  0  0  0  0
   12.6191  -17.9955   -0.1857 H   0  0  0  0  0  0  0  0  0  0  0  0
   18.5023  -17.1398   -0.1655 H   0  0  0  0  0  0  0  0  0  0  0  0
   22.9151  -11.6773   -0.0611 H   0  0  0  0  0  0  0  0  0  0  0  0
   20.4812   -9.3657   -0.1336 H   0  0  0  0  0  0  0  0  0  0  0  0
  3  1  2  0  0  0  0
  4  2  2  0  0  0  0
  5  3  1  0  0  0  0
  6  4  1  0  0  0  0
  6  5  2  0  0  0  0
  8  7  2  0  0  0  0
  9  7  1  0  0  0  0
 10  8  1  0  0  0  0
  1  9  1  0  0  0  0
  2 10  1  0  0  0  0
  2  1  1  0  0  0  0
 12 11  1  0  0  0  0
 13 11  2  0  0  0  0
 14 12  2  0  0  0  0
 15 13  1  0  0  0  0
 16 14  1  0  0  0  0
 16 15  2  0  0  0  0
  7 11  1  0  0  0  0
  5 17  1  0  0  0  0
  4 18  1  0  0  0  0
 10 19  2  0  0  0  0
  8 20  1  0  0  0  0
 16 21  1  0  0  0  0
 14 22  1  0  0  0  0
 23  3  1  0  0  0  0
 24  6  1  0  0  0  0
 25 12  1  0  0  0  0
 26 13  1  0  0  0  0
 27 15  1  0  0  0  0
 28 17  1  0  0  0  0
 29 18  1  0  0  0  0
 30 20  1  0  0  0  0
 31 21  1  0  0  0  0
 32 22  1  0  0  0  0
M  END
