
  ACD/Labs08301023473D

 30 31  0  0  0  0  0  0  0  0  1 V2000
   20.8541  -15.5902   -2.7088 C   0  0  0  0  0  0  0  0  0  0  0  0
   20.7487  -17.1070   -2.5227 C   0  0  0  0  0  0  0  0  0  0  0  0
   20.0987  -14.8148   -1.9162 C   0  0  0  0  0  0  0  0  0  0  0  0
   19.6906  -17.4824   -1.4266 C   0  0  0  0  0  0  0  0  0  0  0  0
   19.2028  -15.5383   -0.9159 C   0  0  0  0  0  0  0  0  0  0  0  0
   19.9579  -16.6128   -0.1380 C   0  0  0  0  0  0  0  0  0  0  0  0
   20.1301  -13.3069   -2.0104 C   0  0  0  0  0  0  0  0  0  0  0  0
   18.3906  -16.6454   -1.5305 C   0  0  0  0  0  0  0  0  0  0  0  0
   17.9333  -16.3742   -2.9787 C   0  0  0  0  0  0  0  0  0  0  0  0
   17.1853  -17.1413   -0.7120 C   0  0  0  0  0  0  0  0  0  0  0  0
   19.3509  -12.8445   -3.2446 C   0  0  0  0  0  0  0  0  0  0  0  0
   19.4027  -11.4279   -3.3333 O   0  0  0  0  0  0  0  0  0  0  0  0
   21.4920  -15.0409   -3.4338 H   0  0  0  0  0  0  0  0  0  0  0  0
   20.4525  -17.5598   -3.4930 H   0  0  0  0  0  0  0  0  0  0  0  0
   21.7458  -17.4938   -2.2220 H   0  0  0  0  0  0  0  0  0  0  0  0
   19.6772  -18.5923   -1.4737 H   0  0  0  0  0  0  0  0  0  0  0  0
   18.7068  -14.6761   -0.4209 H   0  0  0  0  0  0  0  0  0  0  0  0
   19.4594  -16.9597    0.7924 H   0  0  0  0  0  0  0  0  0  0  0  0
   21.0227  -16.3794    0.0766 H   0  0  0  0  0  0  0  0  0  0  0  0
   19.6695  -12.8762   -1.0957 H   0  0  0  0  0  0  0  0  0  0  0  0
   21.1858  -12.9697   -2.0880 H   0  0  0  0  0  0  0  0  0  0  0  0
   16.8445  -16.1529   -2.9876 H   0  0  0  0  0  0  0  0  0  0  0  0
   18.4913  -15.5040   -3.3861 H   0  0  0  0  0  0  0  0  0  0  0  0
   18.1341  -17.2705   -3.6040 H   0  0  0  0  0  0  0  0  0  0  0  0
   16.3835  -16.3724   -0.7312 H   0  0  0  0  0  0  0  0  0  0  0  0
   16.8024  -18.0866   -1.1528 H   0  0  0  0  0  0  0  0  0  0  0  0
   17.5003  -17.3215    0.3382 H   0  0  0  0  0  0  0  0  0  0  0  0
   19.7943  -13.2619   -4.1739 H   0  0  0  0  0  0  0  0  0  0  0  0
   18.2833  -13.1441   -3.1760 H   0  0  0  0  0  0  0  0  0  0  0  0
   18.5463  -10.8888   -3.3258 H   0  0  0  0  0  0  0  0  0  0  0  0
  2  1  1  0  0  0  0
  3  1  2  0  0  0  0
  4  2  1  0  0  0  0
  5  3  1  0  0  0  0
  6  4  1  0  0  0  0
  6  5  1  0  0  0  0
  3  7  1  0  0  0  0
  5  8  1  0  0  0  0
  8  4  1  0  0  0  0
  8  9  1  0  0  0  0
  8 10  1  0  0  0  0
 12 11  1  0  0  0  0
  7 11  1  0  0  0  0
 13  1  1  0  0  0  0
 14  2  1  0  0  0  0
 15  2  1  0  0  0  0
 16  4  1  0  0  0  0
 17  5  1  0  0  0  0
 18  6  1  0  0  0  0
 19  6  1  0  0  0  0
 20  7  1  0  0  0  0
 21  7  1  0  0  0  0
 22  9  1  0  0  0  0
 23  9  1  0  0  0  0
 24  9  1  0  0  0  0
 25 10  1  0  0  0  0
 26 10  1  0  0  0  0
 27 10  1  0  0  0  0
 28 11  1  0  0  0  0
 29 11  1  0  0  0  0
 30 12  1  0  0  0  0
M  END
