
  ACD/Labs09011020453D

 48 51  0  0  0  0  0  0  0  0  1 V2000
   21.1921  -18.3196    2.7143 C   0  0  0  0  0  0  0  0  0  0  0  0
   20.9271  -19.6392    2.3912 C   0  0  0  0  0  0  0  0  0  0  0  0
   21.3802  -17.3728    1.7176 C   0  0  0  0  0  0  0  0  0  0  0  0
   20.8517  -20.0171    1.0585 C   0  0  0  0  0  0  0  0  0  0  0  0
   21.3038  -17.7570    0.3895 C   0  0  0  0  0  0  0  0  0  0  0  0
   21.0388  -19.0770    0.0571 C   0  0  0  0  0  0  0  0  0  0  0  0
   21.6898  -15.9238    2.0832 C   0  0  0  0  0  0  0  0  0  0  0  0
   21.1562  -14.9971    1.0575 N   0  0  0  0  0  0  0  0  0  0  0  0
   20.7464  -15.4713   -0.2990 C   0  0  0  0  0  0  0  0  0  0  0  0
   21.5218  -16.7309   -0.6845 C   0  0  0  0  0  0  0  0  0  0  0  0
   21.9804  -13.7787    1.1328 C   0  0  0  0  0  0  0  0  0  0  0  0
   21.2687  -12.6605    0.3889 C   0  0  0  0  0  0  0  0  0  0  0  0
   21.2207  -13.0852   -1.0513 C   0  0  0  0  0  0  0  0  0  0  0  0
   20.9759  -14.4105   -1.3862 C   0  0  0  0  0  0  0  0  0  0  0  0
   21.4365  -12.1419   -2.0418 C   0  0  0  0  0  0  0  0  0  0  0  0
   21.4054  -12.5098   -3.3779 C   0  0  0  0  0  0  0  0  0  0  0  0
   20.9443  -14.7746   -2.7261 C   0  0  0  0  0  0  0  0  0  0  0  0
   21.1575  -13.8296   -3.7190 C   0  0  0  0  0  0  0  0  0  0  0  0
   21.6198  -11.5863   -4.3593 O   0  0  0  0  0  0  0  0  0  0  0  0
   21.1270  -14.1987   -5.0278 O   0  0  0  0  0  0  0  0  0  0  0  0
   21.4793  -10.1881   -4.1388 C   0  0  0  0  0  0  0  0  0  0  0  0
   21.0409  -15.5935    3.4346 C   0  0  0  0  0  0  0  0  0  0  0  0
   20.7426  -20.5491    3.3920 O   0  0  0  0  0  0  0  0  0  0  0  0
   20.8185  -21.9536    3.1787 C   0  0  0  0  0  0  0  0  0  0  0  0
   20.5969  -21.3136    0.7364 O   0  0  0  0  0  0  0  0  0  0  0  0
   22.7942  -15.7993    2.1456 H   0  0  0  0  0  0  0  0  0  0  0  0
   21.2542  -18.0181    3.7818 H   0  0  0  0  0  0  0  0  0  0  0  0
   20.9766  -19.3809   -1.0097 H   0  0  0  0  0  0  0  0  0  0  0  0
   19.6593  -15.6828   -0.2098 H   0  0  0  0  0  0  0  0  0  0  0  0
   22.6063  -16.5037   -0.7651 H   0  0  0  0  0  0  0  0  0  0  0  0
   21.1526  -17.1263   -1.6549 H   0  0  0  0  0  0  0  0  0  0  0  0
   22.1213  -13.5024    2.1996 H   0  0  0  0  0  0  0  0  0  0  0  0
   22.9692  -13.9813    0.6685 H   0  0  0  0  0  0  0  0  0  0  0  0
   20.2382  -12.5254    0.7816 H   0  0  0  0  0  0  0  0  0  0  0  0
   21.8310  -11.7074    0.4873 H   0  0  0  0  0  0  0  0  0  0  0  0
   21.6357  -11.0850   -1.7632 H   0  0  0  0  0  0  0  0  0  0  0  0
   20.7468  -15.8314   -3.0062 H   0  0  0  0  0  0  0  0  0  0  0  0
   20.9487  -15.1630   -5.2776 H   0  0  0  0  0  0  0  0  0  0  0  0
   22.4832   -9.7119   -4.1321 H   0  0  0  0  0  0  0  0  0  0  0  0
   20.8649   -9.7452   -4.9519 H   0  0  0  0  0  0  0  0  0  0  0  0
   20.9813  -10.0160   -3.1606 H   0  0  0  0  0  0  0  0  0  0  0  0
   21.8295  -15.5087    4.2128 H   0  0  0  0  0  0  0  0  0  0  0  0
   20.4929  -14.6301    3.3563 H   0  0  0  0  0  0  0  0  0  0  0  0
   20.3322  -16.4030    3.7124 H   0  0  0  0  0  0  0  0  0  0  0  0
   21.8823  -22.2536    3.0647 H   0  0  0  0  0  0  0  0  0  0  0  0
   20.3753  -22.4844    4.0484 H   0  0  0  0  0  0  0  0  0  0  0  0
   20.2583  -22.2186    2.2564 H   0  0  0  0  0  0  0  0  0  0  0  0
   20.5438  -21.5925   -0.2349 H   0  0  0  0  0  0  0  0  0  0  0  0
  2  1  1  0  0  0  0
  3  1  2  0  0  0  0
  4  2  2  0  0  0  0
  6  4  1  0  0  0  0
  6  5  2  0  0  0  0
  3  7  1  0  0  0  0
  8  7  1  0  0  0  0
  5  3  1  0  0  0  0
 10  5  1  0  0  0  0
 10  9  1  0  0  0  0
  8 11  1  0  0  0  0
 12 11  1  0  0  0  0
  9  8  1  0  0  0  0
 13 12  1  0  0  0  0
 14  9  1  0  0  0  0
 15 13  2  0  0  0  0
 14 13  1  0  0  0  0
 16 15  1  0  0  0  0
 17 14  2  0  0  0  0
 18 16  2  0  0  0  0
 18 17  1  0  0  0  0
 16 19  1  0  0  0  0
 18 20  1  0  0  0  0
 19 21  1  0  0  0  0
  7 22  1  0  0  0  0
  2 23  1  0  0  0  0
 23 24  1  0  0  0  0
  4 25  1  0  0  0  0
 26  7  1  0  0  0  0
 27  1  1  0  0  0  0
 28  6  1  0  0  0  0
 29  9  1  0  0  0  0
 30 10  1  0  0  0  0
 31 10  1  0  0  0  0
 32 11  1  0  0  0  0
 33 11  1  0  0  0  0
 34 12  1  0  0  0  0
 35 12  1  0  0  0  0
 36 15  1  0  0  0  0
 37 17  1  0  0  0  0
 38 20  1  0  0  0  0
 39 21  1  0  0  0  0
 40 21  1  0  0  0  0
 41 21  1  0  0  0  0
 42 22  1  0  0  0  0
 43 22  1  0  0  0  0
 44 22  1  0  0  0  0
 45 24  1  0  0  0  0
 46 24  1  0  0  0  0
 47 24  1  0  0  0  0
 48 25  1  0  0  0  0
M  END
