
  ACD/Labs08311000333D

 35 37  0  0  0  0  0  0  0  0  1 V2000
   13.1753  -13.6319   -0.4985 C   0  0  0  0  0  0  0  0  0  0  0  0
   13.1053  -14.9723   -0.1342 C   0  0  0  0  0  0  0  0  0  0  0  0
   12.0120  -12.9375   -0.7948 C   0  0  0  0  0  0  0  0  0  0  0  0
   11.8764  -15.6099   -0.0689 C   0  0  0  0  0  0  0  0  0  0  0  0
   10.7833  -13.5781   -0.7268 C   0  0  0  0  0  0  0  0  0  0  0  0
   10.7159  -14.9132   -0.3645 C   0  0  0  0  0  0  0  0  0  0  0  0
   15.4939  -13.5314    0.1619 C   0  0  0  0  0  0  0  0  0  0  0  0
   15.6359  -14.9999   -0.2466 C   0  0  0  0  0  0  0  0  0  0  0  0
   14.3887  -13.0012   -0.5624 O   0  0  0  0  0  0  0  0  0  0  0  0
   14.3703  -15.7472    0.2055 C   0  0  0  0  0  0  0  0  0  0  0  0
   16.7737  -12.7568   -0.1253 C   0  0  0  0  0  0  0  0  0  0  0  0
   16.7289  -11.4468   -0.5790 C   0  0  0  0  0  0  0  0  0  0  0  0
   18.0009  -13.3703    0.0841 C   0  0  0  0  0  0  0  0  0  0  0  0
   17.9094  -10.7556   -0.8182 C   0  0  0  0  0  0  0  0  0  0  0  0
   19.1775  -12.6815   -0.1536 C   0  0  0  0  0  0  0  0  0  0  0  0
   19.1322  -11.3744   -0.6048 C   0  0  0  0  0  0  0  0  0  0  0  0
    9.6424  -12.8965   -1.0150 O   0  0  0  0  0  0  0  0  0  0  0  0
   11.8100  -16.9191    0.2907 O   0  0  0  0  0  0  0  0  0  0  0  0
   16.7830  -15.5710    0.3659 O   0  0  0  0  0  0  0  0  0  0  0  0
   17.8723   -9.4682   -1.2586 O   0  0  0  0  0  0  0  0  0  0  0  0
   20.2896  -10.6981   -0.8346 O   0  0  0  0  0  0  0  0  0  0  0  0
   12.0645  -11.8669   -1.0870 H   0  0  0  0  0  0  0  0  0  0  0  0
    9.7313  -15.4250   -0.3109 H   0  0  0  0  0  0  0  0  0  0  0  0
   15.2538  -13.4071    1.2395 H   0  0  0  0  0  0  0  0  0  0  0  0
   15.8284  -15.1108   -1.3352 H   0  0  0  0  0  0  0  0  0  0  0  0
   14.4103  -15.8978    1.3055 H   0  0  0  0  0  0  0  0  0  0  0  0
   14.3298  -16.7343   -0.3027 H   0  0  0  0  0  0  0  0  0  0  0  0
   15.7491  -10.9519   -0.7504 H   0  0  0  0  0  0  0  0  0  0  0  0
   18.0417  -14.4204    0.4447 H   0  0  0  0  0  0  0  0  0  0  0  0
   20.1570  -13.1772    0.0174 H   0  0  0  0  0  0  0  0  0  0  0  0
    8.7467  -13.3648   -0.9644 H   0  0  0  0  0  0  0  0  0  0  0  0
   10.9130  -17.3847    0.3424 H   0  0  0  0  0  0  0  0  0  0  0  0
   17.5251  -15.9527   -0.2066 H   0  0  0  0  0  0  0  0  0  0  0  0
   18.7346   -8.9666   -1.4288 H   0  0  0  0  0  0  0  0  0  0  0  0
   21.1805  -11.1510   -0.6755 H   0  0  0  0  0  0  0  0  0  0  0  0
  3  1  2  0  0  0  0
  4  2  2  0  0  0  0
  5  3  1  0  0  0  0
  6  4  1  0  0  0  0
  6  5  2  0  0  0  0
  8  7  1  0  0  0  0
  9  7  1  0  0  0  0
 10  8  1  0  0  0  0
  1  9  1  0  0  0  0
  2 10  1  0  0  0  0
  2  1  1  0  0  0  0
 12 11  2  0  0  0  0
 13 11  1  0  0  0  0
 14 12  1  0  0  0  0
 15 13  2  0  0  0  0
 16 14  2  0  0  0  0
 16 15  1  0  0  0  0
  7 11  1  0  0  0  0
  5 17  1  0  0  0  0
  4 18  1  0  0  0  0
  8 19  1  0  0  0  0
 14 20  1  0  0  0  0
 16 21  1  0  0  0  0
 22  3  1  0  0  0  0
 23  6  1  0  0  0  0
 24  7  1  0  0  0  0
 25  8  1  0  0  0  0
 26 10  1  0  0  0  0
 27 10  1  0  0  0  0
 28 12  1  0  0  0  0
 29 13  1  0  0  0  0
 30 15  1  0  0  0  0
 31 17  1  0  0  0  0
 32 18  1  0  0  0  0
 33 19  1  0  0  0  0
 34 20  1  0  0  0  0
 35 21  1  0  0  0  0
M  END
