
  ACD/Labs09011022043D

 36 36  0  0  0  0  0  0  0  0  1 V2000
   15.4617  -13.3232   -0.0730 C   0  0  0  0  0  0  0  0  0  0  0  0
   15.7852  -13.8539   -1.4754 C   0  0  0  0  0  0  0  0  0  0  0  0
   14.1860  -13.1667    0.3191 C   0  0  0  0  0  0  0  0  0  0  0  0
   14.7021  -14.8585   -1.9357 C   0  0  0  0  0  0  0  0  0  0  0  0
   13.0646  -13.5101   -0.5790 C   0  0  0  0  0  0  0  0  0  0  0  0
   13.3326  -14.1571   -1.9258 C   0  0  0  0  0  0  0  0  0  0  0  0
   17.1554  -14.5145   -1.5100 C   0  0  0  0  0  0  0  0  0  0  0  0
   18.2655  -13.7634   -1.4606 C   0  0  0  0  0  0  0  0  0  0  0  0
   19.6238  -14.4177   -1.5037 C   0  0  0  0  0  0  0  0  0  0  0  0
   20.7175  -13.3483   -1.4895 C   0  0  0  0  0  0  0  0  0  0  0  0
   19.7324  -15.1845   -2.6944 O   0  0  0  0  0  0  0  0  0  0  0  0
   16.5683  -12.9559    0.8916 C   0  0  0  0  0  0  0  0  0  0  0  0
   11.9286  -13.2676   -0.2416 O   0  0  0  0  0  0  0  0  0  0  0  0
   15.0035  -15.3311   -3.3613 C   0  0  0  0  0  0  0  0  0  0  0  0
   14.6595  -16.0774   -0.9990 C   0  0  0  0  0  0  0  0  0  0  0  0
   15.7950  -12.7612   -2.3826 O   0  0  0  0  0  0  0  0  0  0  0  0
   17.2373  -15.6199   -1.5849 H   0  0  0  0  0  0  0  0  0  0  0  0
   18.1843  -12.6579   -1.3892 H   0  0  0  0  0  0  0  0  0  0  0  0
   14.0627  -12.7677    1.3487 H   0  0  0  0  0  0  0  0  0  0  0  0
   13.3153  -13.3711   -2.7108 H   0  0  0  0  0  0  0  0  0  0  0  0
   12.5349  -14.9029   -2.1301 H   0  0  0  0  0  0  0  0  0  0  0  0
   19.7400  -15.1304   -0.6595 H   0  0  0  0  0  0  0  0  0  0  0  0
   20.6325  -12.7200   -2.4020 H   0  0  0  0  0  0  0  0  0  0  0  0
   20.5989  -12.7097   -0.5880 H   0  0  0  0  0  0  0  0  0  0  0  0
   21.7143  -13.8388   -1.4693 H   0  0  0  0  0  0  0  0  0  0  0  0
   19.8864  -16.1833   -2.6407 H   0  0  0  0  0  0  0  0  0  0  0  0
   17.1272  -12.0803    0.4973 H   0  0  0  0  0  0  0  0  0  0  0  0
   16.1283  -12.7001    1.8793 H   0  0  0  0  0  0  0  0  0  0  0  0
   17.2612  -13.8170    1.0049 H   0  0  0  0  0  0  0  0  0  0  0  0
   14.8417  -14.4918   -4.0712 H   0  0  0  0  0  0  0  0  0  0  0  0
   16.0598  -15.6700   -3.4232 H   0  0  0  0  0  0  0  0  0  0  0  0
   14.3269  -16.1728   -3.6229 H   0  0  0  0  0  0  0  0  0  0  0  0
   14.3291  -16.9714   -1.5701 H   0  0  0  0  0  0  0  0  0  0  0  0
   15.6730  -16.2587   -0.5813 H   0  0  0  0  0  0  0  0  0  0  0  0
   13.9452  -15.8826   -0.1705 H   0  0  0  0  0  0  0  0  0  0  0  0
   16.6315  -12.5501   -2.9115 H   0  0  0  0  0  0  0  0  0  0  0  0
  2  1  1  0  0  0  0
  3  1  2  0  0  0  0
  4  2  1  0  0  0  0
  5  3  1  0  0  0  0
  6  4  1  0  0  0  0
  6  5  1  0  0  0  0
  2  7  1  0  0  0  0
  7  8  2  0  0  0  0
  8  9  1  0  0  0  0
  9 10  1  0  0  0  0
  9 11  1  0  0  0  0
  1 12  1  0  0  0  0
  5 13  2  0  0  0  0
  4 14  1  0  0  0  0
  4 15  1  0  0  0  0
  2 16  1  0  0  0  0
 17  7  1  0  0  0  0
 18  8  1  0  0  0  0
 19  3  1  0  0  0  0
 20  6  1  0  0  0  0
 21  6  1  0  0  0  0
 22  9  1  0  0  0  0
 23 10  1  0  0  0  0
 24 10  1  0  0  0  0
 25 10  1  0  0  0  0
 26 11  1  0  0  0  0
 27 12  1  0  0  0  0
 28 12  1  0  0  0  0
 29 12  1  0  0  0  0
 30 14  1  0  0  0  0
 31 14  1  0  0  0  0
 32 14  1  0  0  0  0
 33 15  1  0  0  0  0
 34 15  1  0  0  0  0
 35 15  1  0  0  0  0
 36 16  1  0  0  0  0
M  END
