
  ACD/Labs04051110103D

 55 58  0  0  0  0  0  0  0  0  1 V2000
   18.9071  -17.7600   -1.2917 C   0  0  0  0  0  0  0  0  0  0  0  0
   19.2515  -19.1615   -1.9304 C   0  0  0  0  0  0  0  0  0  0  0  0
   17.4321  -17.3111   -1.4923 C   0  0  0  0  0  0  0  0  0  0  0  0
   18.0247  -19.8847   -2.2920 C   0  0  0  0  0  0  0  0  0  0  0  0
   16.8672  -17.8278   -2.8301 C   0  0  0  0  0  0  0  0  0  0  0  0
   16.8830  -19.3322   -2.7193 C   0  0  0  0  0  0  0  0  0  0  0  0
   21.3344  -17.2054   -1.6895 C   0  0  0  0  0  0  0  0  0  0  0  0
   21.4861  -18.2827   -2.7882 C   0  0  0  0  0  0  0  0  0  0  0  0
   19.8974  -16.6395   -1.7127 C   0  0  0  0  0  0  0  0  0  0  0  0
   20.1252  -18.9115   -3.1745 C   0  0  0  0  0  0  0  0  0  0  0  0
   19.4502  -21.3708   -1.2774 O   0  0  0  0  0  0  0  0  0  0  0  0
   18.2972  -21.2600   -2.0180 C   0  0  0  0  0  0  0  0  0  0  0  0
   19.7772  -15.4489   -0.7181 C   0  0  0  0  0  0  0  0  0  0  0  0
   19.5647  -16.1498   -3.1455 C   0  0  0  0  0  0  0  0  0  0  0  0
   22.3408  -16.0785   -1.9455 C   0  0  0  0  0  0  0  0  0  0  0  0
   19.1328  -14.2057   -1.3625 C   0  0  0  0  0  0  0  0  0  0  0  0
   17.9222  -13.7569   -0.5469 C   0  0  0  0  0  0  0  0  0  0  0  0
   16.8270  -14.5202   -0.2611 C   0  0  0  0  0  0  0  0  0  0  0  0
   17.6978  -12.5318    0.0319 C   0  0  0  0  0  0  0  0  0  0  0  0
   16.0500  -13.6508    0.4746 C   0  0  0  0  0  0  0  0  0  0  0  0
   16.6114  -12.5691    0.5879 O   0  0  0  0  0  0  0  0  0  0  0  0
   20.1486  -13.2056   -1.5053 O   0  0  0  0  0  0  0  0  0  0  0  0
   17.6201  -22.1891   -2.3948 O   0  0  0  0  0  0  0  0  0  0  0  0
   19.9977  -20.0685   -0.9340 C   0  0  0  0  0  0  0  0  0  0  0  0
   20.3404  -12.1082   -0.7206 C   0  0  0  0  0  0  0  0  0  0  0  0
   19.4534  -11.7206    0.0050 O   0  0  0  0  0  0  0  0  0  0  0  0
   21.6540  -11.3629   -0.7710 C   0  0  0  0  0  0  0  0  0  0  0  0
   21.5304  -17.6627   -0.6918 H   0  0  0  0  0  0  0  0  0  0  0  0
   19.0289  -17.9057   -0.1970 H   0  0  0  0  0  0  0  0  0  0  0  0
   16.8121  -17.7124   -0.6624 H   0  0  0  0  0  0  0  0  0  0  0  0
   17.3843  -16.2011   -1.4878 H   0  0  0  0  0  0  0  0  0  0  0  0
   15.8275  -17.4681   -2.9855 H   0  0  0  0  0  0  0  0  0  0  0  0
   17.5035  -17.5017   -3.6804 H   0  0  0  0  0  0  0  0  0  0  0  0
   16.0534  -20.0335   -2.9524 H   0  0  0  0  0  0  0  0  0  0  0  0
   21.9341  -17.8138   -3.6902 H   0  0  0  0  0  0  0  0  0  0  0  0
   22.1587  -19.0839   -2.4139 H   0  0  0  0  0  0  0  0  0  0  0  0
   20.3049  -19.8798   -3.6888 H   0  0  0  0  0  0  0  0  0  0  0  0
   19.5873  -18.2220   -3.8597 H   0  0  0  0  0  0  0  0  0  0  0  0
   19.1522  -15.7626    0.1452 H   0  0  0  0  0  0  0  0  0  0  0  0
   20.7926  -15.1744   -0.3605 H   0  0  0  0  0  0  0  0  0  0  0  0
   19.6049  -17.0091   -3.8488 H   0  0  0  0  0  0  0  0  0  0  0  0
   18.5451  -15.7084   -3.1582 H   0  0  0  0  0  0  0  0  0  0  0  0
   20.3060  -15.3825   -3.4557 H   0  0  0  0  0  0  0  0  0  0  0  0
   22.2447  -15.7281   -2.9955 H   0  0  0  0  0  0  0  0  0  0  0  0
   22.1349  -15.2342   -1.2531 H   0  0  0  0  0  0  0  0  0  0  0  0
   23.3714  -16.4570   -1.7744 H   0  0  0  0  0  0  0  0  0  0  0  0
   18.7777  -14.3680   -2.4027 H   0  0  0  0  0  0  0  0  0  0  0  0
   16.6219  -15.5728   -0.5512 H   0  0  0  0  0  0  0  0  0  0  0  0
   18.3243  -11.6144    0.0484 H   0  0  0  0  0  0  0  0  0  0  0  0
   15.0529  -13.8091    0.9383 H   0  0  0  0  0  0  0  0  0  0  0  0
   21.0978  -20.0548   -1.0890 H   0  0  0  0  0  0  0  0  0  0  0  0
   19.7691  -19.8159    0.1235 H   0  0  0  0  0  0  0  0  0  0  0  0
   21.8026  -10.9434   -1.7891 H   0  0  0  0  0  0  0  0  0  0  0  0
   21.6391  -10.5363   -0.0286 H   0  0  0  0  0  0  0  0  0  0  0  0
   22.4849  -12.0612   -0.5333 H   0  0  0  0  0  0  0  0  0  0  0  0
  3  1  1  0  0  0  0
  5  3  1  0  0  0  0
  6  4  2  0  0  0  0
  6  5  1  0  0  0  0
  8  7  1  0  0  0  0
  9  7  1  0  0  0  0
 10  8  1  0  0  0  0
  1  9  1  0  0  0  0
  2  1  1  0  0  0  0
  2 10  1  0  0  0  0
  4  2  1  0  0  0  0
 12 11  1  0  0  0  0
 12  4  1  0  0  0  0
  9 13  1  0  0  0  0
  9 14  1  0  0  0  0
  7 15  1  0  0  0  0
 13 16  1  0  0  0  0
 18 17  1  0  0  0  0
 19 17  2  0  0  0  0
 20 18  2  0  0  0  0
 21 19  1  0  0  0  0
 21 20  1  0  0  0  0
 16 17  1  0  0  0  0
 16 22  1  0  0  0  0
 12 23  2  0  0  0  0
  2 24  1  0  0  0  0
 24 11  1  0  0  0  0
 26 25  2  0  0  0  0
 27 25  1  0  0  0  0
 22 25  1  0  0  0  0
 28  7  1  0  0  0  0
 29  1  1  0  0  0  0
 30  3  1  0  0  0  0
 31  3  1  0  0  0  0
 32  5  1  0  0  0  0
 33  5  1  0  0  0  0
 34  6  1  0  0  0  0
 35  8  1  0  0  0  0
 36  8  1  0  0  0  0
 37 10  1  0  0  0  0
 38 10  1  0  0  0  0
 39 13  1  0  0  0  0
 40 13  1  0  0  0  0
 41 14  1  0  0  0  0
 42 14  1  0  0  0  0
 43 14  1  0  0  0  0
 44 15  1  0  0  0  0
 45 15  1  0  0  0  0
 46 15  1  0  0  0  0
 47 16  1  0  0  0  0
 48 18  1  0  0  0  0
 49 19  1  0  0  0  0
 50 20  1  0  0  0  0
 51 24  1  0  0  0  0
 52 24  1  0  0  0  0
 53 27  1  0  0  0  0
 54 27  1  0  0  0  0
 55 27  1  0  0  0  0
M  END
