
  ACD/Labs07101016313D

 32 34  0  0  0  0  0  0  0  0  1 V2000
   17.2786  -20.9613   -3.9979 C   0  0  0  0  0  0  0  0  0  0  0  0
   16.7250  -21.6660   -2.9404 C   0  0  0  0  0  0  0  0  0  0  0  0
   17.0251  -21.3676   -5.2994 C   0  0  0  0  0  0  0  0  0  0  0  0
   15.9151  -22.7650   -3.1694 C   0  0  0  0  0  0  0  0  0  0  0  0
   16.2167  -22.4711   -5.5327 C   0  0  0  0  0  0  0  0  0  0  0  0
   15.6607  -23.1667   -4.4705 C   0  0  0  0  0  0  0  0  0  0  0  0
   18.4527  -19.4795   -2.4849 C   0  0  0  0  0  0  0  0  0  0  0  0
   17.9665  -20.1146   -1.4025 C   0  0  0  0  0  0  0  0  0  0  0  0
   18.0722  -19.8684   -3.7472 O   0  0  0  0  0  0  0  0  0  0  0  0
   17.0211  -21.2192   -1.5813 C   0  0  0  0  0  0  0  0  0  0  0  0
   19.3925  -18.3505   -2.2991 C   0  0  0  0  0  0  0  0  0  0  0  0
   19.9889  -17.7410   -3.3919 C   0  0  0  0  0  0  0  0  0  0  0  0
   19.6759  -17.8937   -1.0200 C   0  0  0  0  0  0  0  0  0  0  0  0
   20.8582  -16.6748   -3.2031 C   0  0  0  0  0  0  0  0  0  0  0  0
   20.5458  -16.8348   -0.8294 C   0  0  0  0  0  0  0  0  0  0  0  0
   21.1357  -16.2216   -1.9216 C   0  0  0  0  0  0  0  0  0  0  0  0
   21.9872  -15.1774   -1.7360 O   0  0  0  0  0  0  0  0  0  0  0  0
   20.8192  -16.4020    0.4320 O   0  0  0  0  0  0  0  0  0  0  0  0
   16.4918  -21.7410   -0.6254 O   0  0  0  0  0  0  0  0  0  0  0  0
   15.3715  -23.4444   -2.1231 O   0  0  0  0  0  0  0  0  0  0  0  0
   14.8665  -24.2446   -4.7078 O   0  0  0  0  0  0  0  0  0  0  0  0
   15.9666  -22.8754   -6.8064 O   0  0  0  0  0  0  0  0  0  0  0  0
   17.4683  -20.8109   -6.1526 H   0  0  0  0  0  0  0  0  0  0  0  0
   18.3253  -19.7479   -0.4170 H   0  0  0  0  0  0  0  0  0  0  0  0
   19.7705  -18.1066   -4.4180 H   0  0  0  0  0  0  0  0  0  0  0  0
   19.2021  -18.3801   -0.1406 H   0  0  0  0  0  0  0  0  0  0  0  0
   21.3327  -16.1833   -4.0793 H   0  0  0  0  0  0  0  0  0  0  0  0
   22.1890  -14.8493   -0.8002 H   0  0  0  0  0  0  0  0  0  0  0  0
   21.4562  -15.6287    0.5746 H   0  0  0  0  0  0  0  0  0  0  0  0
   14.7788  -24.2466   -2.2940 H   0  0  0  0  0  0  0  0  0  0  0  0
   14.6822  -24.5379   -5.6586 H   0  0  0  0  0  0  0  0  0  0  0  0
   15.3771  -23.6804   -6.9752 H   0  0  0  0  0  0  0  0  0  0  0  0
  3  1  1  0  0  0  0
  4  2  1  0  0  0  0
  5  3  2  0  0  0  0
  6  4  2  0  0  0  0
  6  5  1  0  0  0  0
  8  7  2  0  0  0  0
  9  7  1  0  0  0  0
 10  8  1  0  0  0  0
  1  9  1  0  0  0  0
  2 10  1  0  0  0  0
  2  1  2  0  0  0  0
 12 11  2  0  0  0  0
 13 11  1  0  0  0  0
 14 12  1  0  0  0  0
 15 13  2  0  0  0  0
 16 14  2  0  0  0  0
 16 15  1  0  0  0  0
  7 11  1  0  0  0  0
 16 17  1  0  0  0  0
 15 18  1  0  0  0  0
 10 19  2  0  0  0  0
  4 20  1  0  0  0  0
  6 21  1  0  0  0  0
  5 22  1  0  0  0  0
 23  3  1  0  0  0  0
 24  8  1  0  0  0  0
 25 12  1  0  0  0  0
 26 13  1  0  0  0  0
 27 14  1  0  0  0  0
 28 17  1  0  0  0  0
 29 18  1  0  0  0  0
 30 20  1  0  0  0  0
 31 21  1  0  0  0  0
 32 22  1  0  0  0  0
M  END
