
  ACD/Labs08231022413D

 46 48  0  0  0  0  0  0  0  0  1 V2000
   15.3624  -13.8358   -0.1883 C   0  0  0  0  0  0  0  0  0  0  0  0
   15.4452  -15.2130   -0.0647 C   0  0  0  0  0  0  0  0  0  0  0  0
   14.1342  -13.2418   -0.4373 C   0  0  0  0  0  0  0  0  0  0  0  0
   14.3149  -16.0038   -0.1826 C   0  0  0  0  0  0  0  0  0  0  0  0
   12.9985  -14.0302   -0.5537 C   0  0  0  0  0  0  0  0  0  0  0  0
   13.0851  -15.4104   -0.4234 C   0  0  0  0  0  0  0  0  0  0  0  0
   17.7515  -13.5867    0.1436 C   0  0  0  0  0  0  0  0  0  0  0  0
   17.9259  -14.9147    0.2725 C   0  0  0  0  0  0  0  0  0  0  0  0
   16.4946  -13.0703   -0.0644 O   0  0  0  0  0  0  0  0  0  0  0  0
   16.7543  -15.8057    0.1999 C   0  0  0  0  0  0  0  0  0  0  0  0
   18.9262  -12.6895    0.2400 C   0  0  0  0  0  0  0  0  0  0  0  0
   18.7937  -11.3237    0.0378 C   0  0  0  0  0  0  0  0  0  0  0  0
   20.1716  -13.2222    0.5416 C   0  0  0  0  0  0  0  0  0  0  0  0
   19.9032  -10.4960    0.1342 C   0  0  0  0  0  0  0  0  0  0  0  0
   21.2848  -12.4031    0.6346 C   0  0  0  0  0  0  0  0  0  0  0  0
   21.1473  -11.0403    0.4281 C   0  0  0  0  0  0  0  0  0  0  0  0
   11.7927  -13.4494   -0.7970 O   0  0  0  0  0  0  0  0  0  0  0  0
   11.9742  -16.1969   -0.5237 O   0  0  0  0  0  0  0  0  0  0  0  0
   14.4126  -17.3544   -0.0577 O   0  0  0  0  0  0  0  0  0  0  0  0
   16.8686  -16.9967    0.3753 O   0  0  0  0  0  0  0  0  0  0  0  0
   19.1809  -15.4050    0.4825 O   0  0  0  0  0  0  0  0  0  0  0  0
   19.7584   -9.1510   -0.0606 O   0  0  0  0  0  0  0  0  0  0  0  0
   22.2349  -10.2308    0.5159 O   0  0  0  0  0  0  0  0  0  0  0  0
   22.5149  -12.9183    0.9327 O   0  0  0  0  0  0  0  0  0  0  0  0
   10.6957  -15.6880   -0.8876 C   0  0  0  0  0  0  0  0  0  0  0  0
   19.4411  -16.7796    0.7347 C   0  0  0  0  0  0  0  0  0  0  0  0
   22.7807  -14.3154    1.0005 C   0  0  0  0  0  0  0  0  0  0  0  0
   20.8164   -8.2199    0.1446 C   0  0  0  0  0  0  0  0  0  0  0  0
   14.0604  -12.1383   -0.5430 H   0  0  0  0  0  0  0  0  0  0  0  0
   17.7982  -10.8924   -0.2015 H   0  0  0  0  0  0  0  0  0  0  0  0
   20.2785  -14.3151    0.7102 H   0  0  0  0  0  0  0  0  0  0  0  0
   10.9630  -14.0225   -0.8824 H   0  0  0  0  0  0  0  0  0  0  0  0
   13.5854  -17.9314   -0.1405 H   0  0  0  0  0  0  0  0  0  0  0  0
   23.1421  -10.6239    0.7317 H   0  0  0  0  0  0  0  0  0  0  0  0
   10.6002  -15.6846   -1.9946 H   0  0  0  0  0  0  0  0  0  0  0  0
    9.9029  -16.3317   -0.4497 H   0  0  0  0  0  0  0  0  0  0  0  0
   10.5872  -14.6511   -0.5034 H   0  0  0  0  0  0  0  0  0  0  0  0
   19.6787  -17.2928   -0.2217 H   0  0  0  0  0  0  0  0  0  0  0  0
   20.3041  -16.8716    1.4285 H   0  0  0  0  0  0  0  0  0  0  0  0
   18.5438  -17.2479    1.1932 H   0  0  0  0  0  0  0  0  0  0  0  0
   22.9946  -14.7012   -0.0192 H   0  0  0  0  0  0  0  0  0  0  0  0
   23.6603  -14.4932    1.6557 H   0  0  0  0  0  0  0  0  0  0  0  0
   21.8946  -14.8408    1.4169 H   0  0  0  0  0  0  0  0  0  0  0  0
   21.3210   -8.0140   -0.8236 H   0  0  0  0  0  0  0  0  0  0  0  0
   20.4023   -7.2739    0.5548 H   0  0  0  0  0  0  0  0  0  0  0  0
   21.5506   -8.6462    0.8614 H   0  0  0  0  0  0  0  0  0  0  0  0
  3  1  2  0  0  0  0
  4  2  2  0  0  0  0
  5  3  1  0  0  0  0
  6  4  1  0  0  0  0
  6  5  2  0  0  0  0
  8  7  2  0  0  0  0
  9  7  1  0  0  0  0
 10  8  1  0  0  0  0
  1  9  1  0  0  0  0
  2 10  1  0  0  0  0
  2  1  1  0  0  0  0
 12 11  2  0  0  0  0
 13 11  1  0  0  0  0
 14 12  1  0  0  0  0
 15 13  2  0  0  0  0
 16 14  2  0  0  0  0
 16 15  1  0  0  0  0
  7 11  1  0  0  0  0
  5 17  1  0  0  0  0
  6 18  1  0  0  0  0
  4 19  1  0  0  0  0
 10 20  2  0  0  0  0
  8 21  1  0  0  0  0
 14 22  1  0  0  0  0
 16 23  1  0  0  0  0
 15 24  1  0  0  0  0
 18 25  1  0  0  0  0
 21 26  1  0  0  0  0
 24 27  1  0  0  0  0
 22 28  1  0  0  0  0
 29  3  1  0  0  0  0
 30 12  1  0  0  0  0
 31 13  1  0  0  0  0
 32 17  1  0  0  0  0
 33 19  1  0  0  0  0
 34 23  1  0  0  0  0
 35 25  1  0  0  0  0
 36 25  1  0  0  0  0
 37 25  1  0  0  0  0
 38 26  1  0  0  0  0
 39 26  1  0  0  0  0
 40 26  1  0  0  0  0
 41 27  1  0  0  0  0
 42 27  1  0  0  0  0
 43 27  1  0  0  0  0
 44 28  1  0  0  0  0
 45 28  1  0  0  0  0
 46 28  1  0  0  0  0
M  END
