
  ACD/Labs08231022453D

 83 87  0  0  0  0  0  0  0  0  1 V2000
   17.2450  -10.1747   -1.8684 C   0  0  0  0  0  0  0  0  0  0  0  0
   15.8675   -9.7315   -2.4735 C   0  0  0  0  0  0  0  0  0  0  0  0
   17.8779   -9.1427   -2.8479 C   0  0  0  0  0  0  0  0  0  0  0  0
   15.3298   -8.3289   -2.0771 C   0  0  0  0  0  0  0  0  0  0  0  0
   17.7168   -7.6807   -2.3863 C   0  0  0  0  0  0  0  0  0  0  0  0
   16.2716   -7.2792   -2.6594 C   0  0  0  0  0  0  0  0  0  0  0  0
   16.7284  -12.5267   -1.8191 C   0  0  0  0  0  0  0  0  0  0  0  0
   15.4179  -12.2015   -2.5782 C   0  0  0  0  0  0  0  0  0  0  0  0
   17.6860  -11.2262   -1.6873 C   0  0  0  0  0  0  0  0  0  0  0  0
   14.8509  -10.8391   -2.1401 C   0  0  0  0  0  0  0  0  0  0  0  0
   18.4998  -14.1730   -1.4484 C   0  0  0  0  0  0  0  0  0  0  0  0
   17.2621  -13.9301   -2.1737 C   0  0  0  0  0  0  0  0  0  0  0  0
   19.6052  -13.2411   -1.8945 C   0  0  0  0  0  0  0  0  0  0  0  0
   18.8686  -11.9743   -2.4672 C   0  0  0  0  0  0  0  0  0  0  0  0
   18.7592  -15.6482   -1.7589 C   0  0  0  0  0  0  0  0  0  0  0  0
   17.3595  -16.2959   -1.5071 C   0  0  0  0  0  0  0  0  0  0  0  0
   16.3176  -15.0812   -1.7587 C   0  0  0  0  0  0  0  0  0  0  0  0
   16.0066   -6.0210   -2.0587 O   0  0  0  0  0  0  0  0  0  0  0  0
   13.9360   -8.1112   -2.6787 C   0  0  0  0  0  0  0  0  0  0  0  0
   15.2529   -8.1818   -0.5526 C   0  0  0  0  0  0  0  0  0  0  0  0
   17.7461  -10.3736   -0.2853 C   0  0  0  0  0  0  0  0  0  0  0  0
   17.4586  -13.9661   -3.7100 C   0  0  0  0  0  0  0  0  0  0  0  0
   18.3413  -13.9065    0.0670 C   0  0  0  0  0  0  0  0  0  0  0  0
   19.9187  -16.3465   -0.8890 C   0  0  0  0  0  0  0  0  0  0  0  0
   19.4470  -17.7350   -0.3867 C   0  0  0  0  0  0  0  0  0  0  0  0
   20.2933  -15.5102    0.3325 C   0  0  0  0  0  0  0  0  0  0  0  0
   19.2050  -18.7610   -1.5116 C   0  0  0  0  0  0  0  0  0  0  0  0
   19.0808  -20.1741   -0.8964 C   0  0  0  0  0  0  0  0  0  0  0  0
   18.0857  -21.0504   -1.6388 C   0  0  0  0  0  0  0  0  0  0  0  0
   18.2855  -22.5491   -1.6607 C   0  0  0  0  0  0  0  0  0  0  0  0
   17.0210  -20.5177   -2.2562 C   0  0  0  0  0  0  0  0  0  0  0  0
   20.3500  -20.8113   -0.9495 O   0  0  0  0  0  0  0  0  0  0  0  0
   20.1905  -22.2592   -0.6817 O   0  0  0  0  0  0  0  0  0  0  0  0
   16.1111   -7.2094   -3.7602 H   0  0  0  0  0  0  0  0  0  0  0  0
   19.0958  -15.7690   -2.8172 H   0  0  0  0  0  0  0  0  0  0  0  0
   20.8126  -16.4605   -1.5461 H   0  0  0  0  0  0  0  0  0  0  0  0
   16.0124   -9.6099   -3.5683 H   0  0  0  0  0  0  0  0  0  0  0  0
   18.9634   -9.3602   -2.9416 H   0  0  0  0  0  0  0  0  0  0  0  0
   17.3912   -9.2495   -3.8409 H   0  0  0  0  0  0  0  0  0  0  0  0
   17.9329   -7.5945   -1.2999 H   0  0  0  0  0  0  0  0  0  0  0  0
   18.4054   -7.0198   -2.9550 H   0  0  0  0  0  0  0  0  0  0  0  0
   16.5321  -12.7679   -0.7525 H   0  0  0  0  0  0  0  0  0  0  0  0
   15.6250  -12.1723   -3.6693 H   0  0  0  0  0  0  0  0  0  0  0  0
   14.6660  -12.9910   -2.3644 H   0  0  0  0  0  0  0  0  0  0  0  0
   14.6615  -10.8512   -1.0454 H   0  0  0  0  0  0  0  0  0  0  0  0
   13.8992  -10.6432   -2.6789 H   0  0  0  0  0  0  0  0  0  0  0  0
   20.2471  -12.9758   -1.0274 H   0  0  0  0  0  0  0  0  0  0  0  0
   20.2222  -13.7352   -2.6752 H   0  0  0  0  0  0  0  0  0  0  0  0
   18.4495  -12.2920   -3.4458 H   0  0  0  0  0  0  0  0  0  0  0  0
   19.6651  -11.2177   -2.6329 H   0  0  0  0  0  0  0  0  0  0  0  0
   17.1898  -17.1314   -2.2194 H   0  0  0  0  0  0  0  0  0  0  0  0
   17.2953  -16.6776   -0.4657 H   0  0  0  0  0  0  0  0  0  0  0  0
   15.7583  -14.8126   -0.8371 H   0  0  0  0  0  0  0  0  0  0  0  0
   15.5994  -15.3090   -2.5752 H   0  0  0  0  0  0  0  0  0  0  0  0
   15.7199   -5.2373   -2.6312 H   0  0  0  0  0  0  0  0  0  0  0  0
   14.0151   -8.0574   -3.7856 H   0  0  0  0  0  0  0  0  0  0  0  0
   13.2745   -8.9578   -2.3955 H   0  0  0  0  0  0  0  0  0  0  0  0
   13.5102   -7.1608   -2.2913 H   0  0  0  0  0  0  0  0  0  0  0  0
   16.2343   -7.8344   -0.1644 H   0  0  0  0  0  0  0  0  0  0  0  0
   14.4680   -7.4399   -0.2916 H   0  0  0  0  0  0  0  0  0  0  0  0
   15.0019   -9.1642   -0.0983 H   0  0  0  0  0  0  0  0  0  0  0  0
   18.6861   -9.9313    0.1085 H   0  0  0  0  0  0  0  0  0  0  0  0
   17.0377  -10.5462    0.5530 H   0  0  0  0  0  0  0  0  0  0  0  0
   18.5373  -13.8465   -3.9479 H   0  0  0  0  0  0  0  0  0  0  0  0
   17.0977  -14.9394   -4.1065 H   0  0  0  0  0  0  0  0  0  0  0  0
   16.8827  -13.1381   -4.1762 H   0  0  0  0  0  0  0  0  0  0  0  0
   19.1822  -13.2723    0.4210 H   0  0  0  0  0  0  0  0  0  0  0  0
   17.3791  -13.3825    0.2518 H   0  0  0  0  0  0  0  0  0  0  0  0
   18.3500  -14.8727    0.6155 H   0  0  0  0  0  0  0  0  0  0  0  0
   20.2232  -18.1442    0.2948 H   0  0  0  0  0  0  0  0  0  0  0  0
   18.4959  -17.6019    0.1718 H   0  0  0  0  0  0  0  0  0  0  0  0
   21.1051  -14.8017    0.0611 H   0  0  0  0  0  0  0  0  0  0  0  0
   19.4042  -14.9400    0.6773 H   0  0  0  0  0  0  0  0  0  0  0  0
   20.6438  -16.1805    1.1465 H   0  0  0  0  0  0  0  0  0  0  0  0
   18.2671  -18.5057   -2.0496 H   0  0  0  0  0  0  0  0  0  0  0  0
   20.0583  -18.7384   -2.2227 H   0  0  0  0  0  0  0  0  0  0  0  0
   18.7797  -20.0980    0.1703 H   0  0  0  0  0  0  0  0  0  0  0  0
   18.7045  -22.8522   -2.6441 H   0  0  0  0  0  0  0  0  0  0  0  0
   18.9901  -22.8403   -0.8524 H   0  0  0  0  0  0  0  0  0  0  0  0
   17.3088  -23.0549   -1.5027 H   0  0  0  0  0  0  0  0  0  0  0  0
   16.2943  -21.1763   -2.7781 H   0  0  0  0  0  0  0  0  0  0  0  0
   16.8656  -19.4176   -2.2456 H   0  0  0  0  0  0  0  0  0  0  0  0
   19.2716  -22.6417   -0.4990 H   0  0  0  0  0  0  0  0  0  0  0  0
  3  1  1  0  0  0  0
  4  2  1  0  0  0  0
  5  3  1  0  0  0  0
  6  4  1  0  0  0  0
  6  5  1  0  0  0  0
  8  7  1  0  0  0  0
 10  8  1  0  0  0  0
  1  9  1  0  0  0  0
  2 10  1  0  0  0  0
  2  1  1  0  0  0  0
 13 11  1  0  0  0  0
  7 12  1  0  0  0  0
 14 13  1  0  0  0  0
  9  7  1  0  0  0  0
  9 14  1  0  0  0  0
 15 11  1  0  0  0  0
 12 11  1  0  0  0  0
 16 15  1  0  0  0  0
 17 12  1  0  0  0  0
 17 16  1  0  0  0  0
  6 18  1  0  0  0  0
  4 19  1  0  0  0  0
  4 20  1  0  0  0  0
  1 21  1  0  0  0  0
 21  9  1  0  0  0  0
 12 22  1  0  0  0  0
 11 23  1  0  0  0  0
 15 24  1  0  0  0  0
 24 25  1  0  0  0  0
 24 26  1  0  0  0  0
 25 27  1  0  0  0  0
 27 28  1  0  0  0  0
 28 29  1  0  0  0  0
 29 30  1  0  0  0  0
 29 31  2  0  0  0  0
 28 32  1  0  0  0  0
 32 33  1  0  0  0  0
 34  6  1  0  0  0  0
 35 15  1  0  0  0  0
 36 24  1  0  0  0  0
 37  2  1  0  0  0  0
 38  3  1  0  0  0  0
 39  3  1  0  0  0  0
 40  5  1  0  0  0  0
 41  5  1  0  0  0  0
 42  7  1  0  0  0  0
 43  8  1  0  0  0  0
 44  8  1  0  0  0  0
 45 10  1  0  0  0  0
 46 10  1  0  0  0  0
 47 13  1  0  0  0  0
 48 13  1  0  0  0  0
 49 14  1  0  0  0  0
 50 14  1  0  0  0  0
 51 16  1  0  0  0  0
 52 16  1  0  0  0  0
 53 17  1  0  0  0  0
 54 17  1  0  0  0  0
 55 18  1  0  0  0  0
 56 19  1  0  0  0  0
 57 19  1  0  0  0  0
 58 19  1  0  0  0  0
 59 20  1  0  0  0  0
 60 20  1  0  0  0  0
 61 20  1  0  0  0  0
 62 21  1  0  0  0  0
 63 21  1  0  0  0  0
 64 22  1  0  0  0  0
 65 22  1  0  0  0  0
 66 22  1  0  0  0  0
 67 23  1  0  0  0  0
 68 23  1  0  0  0  0
 69 23  1  0  0  0  0
 70 25  1  0  0  0  0
 71 25  1  0  0  0  0
 72 26  1  0  0  0  0
 73 26  1  0  0  0  0
 74 26  1  0  0  0  0
 75 27  1  0  0  0  0
 76 27  1  0  0  0  0
 77 28  1  0  0  0  0
 78 30  1  0  0  0  0
 79 30  1  0  0  0  0
 80 30  1  0  0  0  0
 81 31  1  0  0  0  0
 82 31  1  0  0  0  0
 83 33  1  0  0  0  0
M  END
