
  ACD/Labs07101015363D

 60 64  0  0  0  0  0  0  0  0  1 V2000
   11.0111  -13.1603   -1.6701 C   0  0  0  0  0  0  0  0  0  0  0  0
   12.2904  -13.1783   -1.1917 C   0  0  0  0  0  0  0  0  0  0  0  0
   10.0889  -14.1374   -1.3412 C   0  0  0  0  0  0  0  0  0  0  0  0
   12.7143  -14.1840   -0.3445 C   0  0  0  0  0  0  0  0  0  0  0  0
   10.5078  -15.1577   -0.4958 C   0  0  0  0  0  0  0  0  0  0  0  0
   11.8102  -15.1821   -0.0003 C   0  0  0  0  0  0  0  0  0  0  0  0
    9.8500   -9.5090   -2.4371 C   0  0  0  0  0  0  0  0  0  0  0  0
   11.1064   -9.2638   -3.2909 C   0  0  0  0  0  0  0  0  0  0  0  0
    9.8411  -10.9797   -1.8935 C   0  0  0  0  0  0  0  0  0  0  0  0
   12.3067   -9.8168   -2.5399 C   0  0  0  0  0  0  0  0  0  0  0  0
   10.8323  -11.9643   -2.5341 C   0  0  0  0  0  0  0  0  0  0  0  0
   12.2513  -11.3368   -2.6916 C   0  0  0  0  0  0  0  0  0  0  0  0
   13.0449  -12.0818   -1.6693 N   0  0  0  0  0  0  0  0  0  0  0  0
    7.3259   -9.5468   -2.5021 C   0  0  0  0  0  0  0  0  0  0  0  0
    8.6020   -9.2775   -3.3050 C   0  0  0  0  0  0  0  0  0  0  0  0
    7.3279  -10.9871   -1.9786 C   0  0  0  0  0  0  0  0  0  0  0  0
    8.5969  -11.6772   -2.2713 N   0  0  0  0  0  0  0  0  0  0  0  0
    8.7381  -12.1842   -3.6547 C   0  0  0  0  0  0  0  0  0  0  0  0
   10.2501  -12.3448   -3.8920 C   0  0  0  0  0  0  0  0  0  0  0  0
    9.8495   -8.5336   -1.2439 C   0  0  0  0  0  0  0  0  0  0  0  0
    9.8937   -7.0720   -1.7128 C   0  0  0  0  0  0  0  0  0  0  0  0
   14.3307  -11.7975   -1.2406 C   0  0  0  0  0  0  0  0  0  0  0  0
   14.8560  -12.5231   -0.4267 O   0  0  0  0  0  0  0  0  0  0  0  0
   15.0814  -10.5903   -1.7646 C   0  0  0  0  0  0  0  0  0  0  0  0
   14.9127   -9.4056   -0.8058 C   0  0  0  0  0  0  0  0  0  0  0  0
   13.9860  -14.1970    0.1376 O   0  0  0  0  0  0  0  0  0  0  0  0
   12.1970  -16.1897    0.8259 O   0  0  0  0  0  0  0  0  0  0  0  0
   12.5502  -17.4549    0.2873 C   0  0  0  0  0  0  0  0  0  0  0  0
    9.0526  -14.1040   -1.7402 H   0  0  0  0  0  0  0  0  0  0  0  0
    9.7947  -15.9615   -0.2135 H   0  0  0  0  0  0  0  0  0  0  0  0
   11.0088   -9.7822   -4.2687 H   0  0  0  0  0  0  0  0  0  0  0  0
   11.2440   -8.1745   -3.4607 H   0  0  0  0  0  0  0  0  0  0  0  0
   10.0111  -10.8324   -0.8055 H   0  0  0  0  0  0  0  0  0  0  0  0
   13.2472   -9.4197   -2.9781 H   0  0  0  0  0  0  0  0  0  0  0  0
   12.2491   -9.5341   -1.4670 H   0  0  0  0  0  0  0  0  0  0  0  0
   12.6862  -11.4493   -3.7077 H   0  0  0  0  0  0  0  0  0  0  0  0
    7.2770   -8.8436   -1.6434 H   0  0  0  0  0  0  0  0  0  0  0  0
    6.4412   -9.3948   -3.1568 H   0  0  0  0  0  0  0  0  0  0  0  0
    8.5926   -8.2244   -3.6590 H   0  0  0  0  0  0  0  0  0  0  0  0
    8.6320   -9.9624   -4.1793 H   0  0  0  0  0  0  0  0  0  0  0  0
    7.1843  -10.9849   -0.8769 H   0  0  0  0  0  0  0  0  0  0  0  0
    6.5064  -11.5607   -2.4585 H   0  0  0  0  0  0  0  0  0  0  0  0
    8.2130  -13.1586   -3.7504 H   0  0  0  0  0  0  0  0  0  0  0  0
    8.2973  -11.4540   -4.3665 H   0  0  0  0  0  0  0  0  0  0  0  0
   10.6105  -11.6586   -4.6880 H   0  0  0  0  0  0  0  0  0  0  0  0
   10.5095  -13.3915   -4.1592 H   0  0  0  0  0  0  0  0  0  0  0  0
    8.9261   -8.6920   -0.6467 H   0  0  0  0  0  0  0  0  0  0  0  0
   10.7398   -8.7353   -0.6107 H   0  0  0  0  0  0  0  0  0  0  0  0
   10.1858   -7.0358   -2.7842 H   0  0  0  0  0  0  0  0  0  0  0  0
    8.8899   -6.6125   -1.5870 H   0  0  0  0  0  0  0  0  0  0  0  0
   10.6378   -6.5115   -1.1071 H   0  0  0  0  0  0  0  0  0  0  0  0
   16.1592  -10.8448   -1.8547 H   0  0  0  0  0  0  0  0  0  0  0  0
   14.6795  -10.3194   -2.7643 H   0  0  0  0  0  0  0  0  0  0  0  0
   15.1775   -8.4634   -1.3318 H   0  0  0  0  0  0  0  0  0  0  0  0
   13.8569   -9.3542   -0.4634 H   0  0  0  0  0  0  0  0  0  0  0  0
   15.5818   -9.5409    0.0709 H   0  0  0  0  0  0  0  0  0  0  0  0
   14.2852  -14.9402    0.7559 H   0  0  0  0  0  0  0  0  0  0  0  0
   12.8001  -17.3419   -0.7894 H   0  0  0  0  0  0  0  0  0  0  0  0
   13.4319  -17.8558    0.8318 H   0  0  0  0  0  0  0  0  0  0  0  0
   11.6950  -18.1557    0.3973 H   0  0  0  0  0  0  0  0  0  0  0  0
  2  1  1  0  0  0  0
  3  1  2  0  0  0  0
  4  2  2  0  0  0  0
  5  3  1  0  0  0  0
  6  4  1  0  0  0  0
  6  5  2  0  0  0  0
  8  7  1  0  0  0  0
 10  8  1  0  0  0  0
 11  9  1  0  0  0  0
 12 10  1  0  0  0  0
 12 11  1  0  0  0  0
  1 11  1  0  0  0  0
  2 13  1  0  0  0  0
 12 13  1  0  0  0  0
 15 14  1  0  0  0  0
 16 14  1  0  0  0  0
  7 15  1  0  0  0  0
 17 16  1  0  0  0  0
  9  7  1  0  0  0  0
  9 17  1  0  0  0  0
 17 18  1  0  0  0  0
 18 19  1  0  0  0  0
 19 11  1  0  0  0  0
  7 20  1  0  0  0  0
 20 21  1  0  0  0  0
 13 22  1  0  0  0  0
 22 23  2  0  0  0  0
 22 24  1  0  0  0  0
 24 25  1  0  0  0  0
  4 26  1  0  0  0  0
  6 27  1  0  0  0  0
 27 28  1  0  0  0  0
 29  3  1  0  0  0  0
 30  5  1  0  0  0  0
 31  8  1  0  0  0  0
 32  8  1  0  0  0  0
 33  9  1  0  0  0  0
 34 10  1  0  0  0  0
 35 10  1  0  0  0  0
 36 12  1  0  0  0  0
 37 14  1  0  0  0  0
 38 14  1  0  0  0  0
 39 15  1  0  0  0  0
 40 15  1  0  0  0  0
 41 16  1  0  0  0  0
 42 16  1  0  0  0  0
 43 18  1  0  0  0  0
 44 18  1  0  0  0  0
 45 19  1  0  0  0  0
 46 19  1  0  0  0  0
 47 20  1  0  0  0  0
 48 20  1  0  0  0  0
 49 21  1  0  0  0  0
 50 21  1  0  0  0  0
 51 21  1  0  0  0  0
 52 24  1  0  0  0  0
 53 24  1  0  0  0  0
 54 25  1  0  0  0  0
 55 25  1  0  0  0  0
 56 25  1  0  0  0  0
 57 26  1  0  0  0  0
 58 28  1  0  0  0  0
 59 28  1  0  0  0  0
 60 28  1  0  0  0  0
M  END
