
  ACD/Labs07101015393D

 61 66  0  0  0  0  0  0  0  0  1 V2000
   17.3634  -14.4915   -3.6655 C   0  0  0  0  0  0  0  0  0  0  0  0
   17.1094  -15.2265   -2.5412 C   0  0  0  0  0  0  0  0  0  0  0  0
   16.8474  -14.8288   -4.9026 C   0  0  0  0  0  0  0  0  0  0  0  0
   16.3151  -16.3588   -2.6121 C   0  0  0  0  0  0  0  0  0  0  0  0
   16.0466  -15.9598   -4.9828 C   0  0  0  0  0  0  0  0  0  0  0  0
   15.7837  -16.7189   -3.8458 C   0  0  0  0  0  0  0  0  0  0  0  0
   18.2395  -13.3467   -3.3250 C   0  0  0  0  0  0  0  0  0  0  0  0
   18.6125  -13.5316   -1.8248 C   0  0  0  0  0  0  0  0  0  0  0  0
   17.7404  -14.6695   -1.3962 N   0  0  0  0  0  0  0  0  0  0  0  0
   18.1655  -10.7379   -2.9185 C   0  0  0  0  0  0  0  0  0  0  0  0
   19.0849  -11.1455   -1.7553 C   0  0  0  0  0  0  0  0  0  0  0  0
   17.5170  -12.0103   -3.5713 C   0  0  0  0  0  0  0  0  0  0  0  0
   18.4342  -12.2724   -0.9758 C   0  0  0  0  0  0  0  0  0  0  0  0
   18.1344   -9.5206   -5.1463 C   0  0  0  0  0  0  0  0  0  0  0  0
   18.9977   -9.9905   -3.9718 C   0  0  0  0  0  0  0  0  0  0  0  0
   17.2962  -10.6856   -5.6801 C   0  0  0  0  0  0  0  0  0  0  0  0
   17.6667  -11.9610   -5.0396 N   0  0  0  0  0  0  0  0  0  0  0  0
   18.9953  -12.5046   -5.4115 C   0  0  0  0  0  0  0  0  0  0  0  0
   19.4810  -13.3292   -4.2026 C   0  0  0  0  0  0  0  0  0  0  0  0
   17.5136  -15.0578   -0.0471 C   0  0  0  0  0  0  0  0  0  0  0  0
   18.0689  -14.3244    0.9913 C   0  0  0  0  0  0  0  0  0  0  0  0
   17.8398  -14.6839    2.3095 C   0  0  0  0  0  0  0  0  0  0  0  0
   17.0521  -15.7855    2.5982 C   0  0  0  0  0  0  0  0  0  0  0  0
   16.7264  -16.1601    0.2523 C   0  0  0  0  0  0  0  0  0  0  0  0
   16.4960  -16.5257    1.5685 C   0  0  0  0  0  0  0  0  0  0  0  0
   16.0612  -17.1061   -1.5012 O   0  0  0  0  0  0  0  0  0  0  0  0
   16.1974  -18.5224   -1.5370 C   0  0  0  0  0  0  0  0  0  0  0  0
   17.0450   -9.8221   -2.3847 C   0  0  0  0  0  0  0  0  0  0  0  0
   17.6206   -8.5886   -1.6722 C   0  0  0  0  0  0  0  0  0  0  0  0
   17.0684  -14.2129   -5.8004 H   0  0  0  0  0  0  0  0  0  0  0  0
   15.6141  -16.2587   -5.9615 H   0  0  0  0  0  0  0  0  0  0  0  0
   15.1423  -17.6227   -3.9239 H   0  0  0  0  0  0  0  0  0  0  0  0
   19.6862  -13.7625   -1.6568 H   0  0  0  0  0  0  0  0  0  0  0  0
   20.0631  -11.4917   -2.1523 H   0  0  0  0  0  0  0  0  0  0  0  0
   19.2449  -10.2777   -1.0802 H   0  0  0  0  0  0  0  0  0  0  0  0
   16.4766  -12.0002   -3.1818 H   0  0  0  0  0  0  0  0  0  0  0  0
   17.3552  -12.0579   -0.8210 H   0  0  0  0  0  0  0  0  0  0  0  0
   18.9330  -12.3945    0.0094 H   0  0  0  0  0  0  0  0  0  0  0  0
   17.4585   -8.7080   -4.8039 H   0  0  0  0  0  0  0  0  0  0  0  0
   18.7920   -9.1393   -5.9565 H   0  0  0  0  0  0  0  0  0  0  0  0
   19.4700   -9.1042   -3.4966 H   0  0  0  0  0  0  0  0  0  0  0  0
   19.7878  -10.6701   -4.3567 H   0  0  0  0  0  0  0  0  0  0  0  0
   16.2203  -10.4971   -5.4771 H   0  0  0  0  0  0  0  0  0  0  0  0
   17.4542  -10.7903   -6.7748 H   0  0  0  0  0  0  0  0  0  0  0  0
   18.8947  -13.1442   -6.3144 H   0  0  0  0  0  0  0  0  0  0  0  0
   19.6920  -11.6663   -5.6266 H   0  0  0  0  0  0  0  0  0  0  0  0
   20.3309  -12.8353   -3.6849 H   0  0  0  0  0  0  0  0  0  0  0  0
   19.7757  -14.3581   -4.5006 H   0  0  0  0  0  0  0  0  0  0  0  0
   18.7031  -13.4407    0.7652 H   0  0  0  0  0  0  0  0  0  0  0  0
   18.2875  -14.0893    3.1343 H   0  0  0  0  0  0  0  0  0  0  0  0
   16.8664  -16.0752    3.6546 H   0  0  0  0  0  0  0  0  0  0  0  0
   16.2762  -16.7561   -0.5701 H   0  0  0  0  0  0  0  0  0  0  0  0
   15.8659  -17.4114    1.7981 H   0  0  0  0  0  0  0  0  0  0  0  0
   17.2757  -18.7902   -1.5480 H   0  0  0  0  0  0  0  0  0  0  0  0
   15.7156  -18.9633   -0.6381 H   0  0  0  0  0  0  0  0  0  0  0  0
   15.7083  -18.9181   -2.4529 H   0  0  0  0  0  0  0  0  0  0  0  0
   16.4157   -9.4849   -3.2359 H   0  0  0  0  0  0  0  0  0  0  0  0
   16.4206  -10.3943   -1.6657 H   0  0  0  0  0  0  0  0  0  0  0  0
   18.7238   -8.6909   -1.5886 H   0  0  0  0  0  0  0  0  0  0  0  0
   17.3766   -7.6760   -2.2572 H   0  0  0  0  0  0  0  0  0  0  0  0
   17.1781   -8.5084   -0.6561 H   0  0  0  0  0  0  0  0  0  0  0  0
  2  1  1  0  0  0  0
  3  1  2  0  0  0  0
  4  2  2  0  0  0  0
  5  3  1  0  0  0  0
  6  4  1  0  0  0  0
  6  5  2  0  0  0  0
  1  7  1  0  0  0  0
  2  9  1  0  0  0  0
  8  9  1  0  0  0  0
 11 10  1  0  0  0  0
 13 11  1  0  0  0  0
  7 12  1  0  0  0  0
  8 13  1  0  0  0  0
  8  7  1  0  0  0  0
 15 14  1  0  0  0  0
 16 14  1  0  0  0  0
 10 15  1  0  0  0  0
 17 16  1  0  0  0  0
 12 10  1  0  0  0  0
 12 17  1  0  0  0  0
 17 18  1  0  0  0  0
 18 19  1  0  0  0  0
 19  7  1  0  0  0  0
  9 20  1  0  0  0  0
 22 21  1  0  0  0  0
 20 21  2  0  0  0  0
 23 22  2  0  0  0  0
 24 20  1  0  0  0  0
 25 23  1  0  0  0  0
 25 24  2  0  0  0  0
  4 26  1  0  0  0  0
 26 27  1  0  0  0  0
 10 28  1  0  0  0  0
 28 29  1  0  0  0  0
 30  3  1  0  0  0  0
 31  5  1  0  0  0  0
 32  6  1  0  0  0  0
 33  8  1  0  0  0  0
 34 11  1  0  0  0  0
 35 11  1  0  0  0  0
 36 12  1  0  0  0  0
 37 13  1  0  0  0  0
 38 13  1  0  0  0  0
 39 14  1  0  0  0  0
 40 14  1  0  0  0  0
 41 15  1  0  0  0  0
 42 15  1  0  0  0  0
 43 16  1  0  0  0  0
 44 16  1  0  0  0  0
 45 18  1  0  0  0  0
 46 18  1  0  0  0  0
 47 19  1  0  0  0  0
 48 19  1  0  0  0  0
 49 21  1  0  0  0  0
 50 22  1  0  0  0  0
 51 23  1  0  0  0  0
 52 24  1  0  0  0  0
 53 25  1  0  0  0  0
 54 27  1  0  0  0  0
 55 27  1  0  0  0  0
 56 27  1  0  0  0  0
 57 28  1  0  0  0  0
 58 28  1  0  0  0  0
 59 29  1  0  0  0  0
 60 29  1  0  0  0  0
 61 29  1  0  0  0  0
M  END
