
  ACD/Labs07101015293D

 52 56  0  0  0  0  0  0  0  0  1 V2000
   22.2558  -15.3970   -1.7187 C   0  0  0  0  0  0  0  0  0  0  0  0
   22.0474  -16.8644   -2.1223 C   0  0  0  0  0  0  0  0  0  0  0  0
   23.3712  -15.3057   -0.6656 C   0  0  0  0  0  0  0  0  0  0  0  0
   23.2920  -17.3136   -2.8810 C   0  0  0  0  0  0  0  0  0  0  0  0
   24.6647  -15.8900   -1.3020 C   0  0  0  0  0  0  0  0  0  0  0  0
   24.3883  -16.2304   -2.7902 C   0  0  0  0  0  0  0  0  0  0  0  0
   19.9302  -14.9071   -2.2913 C   0  0  0  0  0  0  0  0  0  0  0  0
   19.9424  -15.8884   -3.2160 C   0  0  0  0  0  0  0  0  0  0  0  0
   20.9379  -14.8719   -1.1604 C   0  0  0  0  0  0  0  0  0  0  0  0
   20.9437  -17.0586   -3.2198 C   0  0  0  0  0  0  0  0  0  0  0  0
   18.4368  -13.5315   -0.9016 C   0  0  0  0  0  0  0  0  0  0  0  0
   18.8887  -13.8090   -2.3524 C   0  0  0  0  0  0  0  0  0  0  0  0
   19.6408  -13.0185   -0.0646 C   0  0  0  0  0  0  0  0  0  0  0  0
   21.0233  -13.4364   -0.6212 C   0  0  0  0  0  0  0  0  0  0  0  0
   25.5795  -16.7079   -3.3964 O   0  0  0  0  0  0  0  0  0  0  0  0
   22.8817  -17.5197   -4.2873 C   0  0  0  0  0  0  0  0  0  0  0  0
   21.5936  -17.1397   -4.4961 O   0  0  0  0  0  0  0  0  0  0  0  0
   23.6053  -17.9725   -5.1449 O   0  0  0  0  0  0  0  0  0  0  0  0
   22.6912  -14.5572   -2.9503 C   0  0  0  0  0  0  0  0  0  0  0  0
   23.9370  -15.0522   -3.4665 O   0  0  0  0  0  0  0  0  0  0  0  0
   17.3476  -12.4827   -0.9021 C   0  0  0  0  0  0  0  0  0  0  0  0
   16.0009  -12.7775   -1.5214 C   0  0  0  0  0  0  0  0  0  0  0  0
   14.9772  -12.2975   -0.6612 O   0  0  0  0  0  0  0  0  0  0  0  0
   17.5619  -11.3931   -0.4225 O   0  0  0  0  0  0  0  0  0  0  0  0
   17.8973  -14.8311   -0.2808 C   0  0  0  0  0  0  0  0  0  0  0  0
   23.8463  -18.6144   -2.2907 C   0  0  0  0  0  0  0  0  0  0  0  0
   20.3813  -17.9978   -3.0145 H   0  0  0  0  0  0  0  0  0  0  0  0
   21.8200  -17.4011   -1.1765 H   0  0  0  0  0  0  0  0  0  0  0  0
   23.5304  -14.2441   -0.3794 H   0  0  0  0  0  0  0  0  0  0  0  0
   23.0869  -15.8935    0.2333 H   0  0  0  0  0  0  0  0  0  0  0  0
   25.4828  -15.1410   -1.2385 H   0  0  0  0  0  0  0  0  0  0  0  0
   24.9635  -16.8124   -0.7597 H   0  0  0  0  0  0  0  0  0  0  0  0
   19.1372  -15.7347   -3.9658 H   0  0  0  0  0  0  0  0  0  0  0  0
   20.6445  -15.5209   -0.3077 H   0  0  0  0  0  0  0  0  0  0  0  0
   19.3339  -12.8955   -2.8014 H   0  0  0  0  0  0  0  0  0  0  0  0
   18.0277  -14.1438   -2.9695 H   0  0  0  0  0  0  0  0  0  0  0  0
   19.5995  -11.9087   -0.0358 H   0  0  0  0  0  0  0  0  0  0  0  0
   19.5464  -13.4201    0.9670 H   0  0  0  0  0  0  0  0  0  0  0  0
   21.7820  -13.3915    0.1891 H   0  0  0  0  0  0  0  0  0  0  0  0
   21.3183  -12.7506   -1.4439 H   0  0  0  0  0  0  0  0  0  0  0  0
   25.9761  -16.2178   -4.1879 H   0  0  0  0  0  0  0  0  0  0  0  0
   21.9372  -14.6257   -3.7634 H   0  0  0  0  0  0  0  0  0  0  0  0
   22.8401  -13.4922   -2.6714 H   0  0  0  0  0  0  0  0  0  0  0  0
   15.8986  -12.2678   -2.5033 H   0  0  0  0  0  0  0  0  0  0  0  0
   15.8596  -13.8714   -1.6549 H   0  0  0  0  0  0  0  0  0  0  0  0
   14.2865  -12.9374   -0.2903 H   0  0  0  0  0  0  0  0  0  0  0  0
   18.1806  -14.8738    0.7927 H   0  0  0  0  0  0  0  0  0  0  0  0
   16.7902  -14.8531   -0.3726 H   0  0  0  0  0  0  0  0  0  0  0  0
   18.3321  -15.7039   -0.8135 H   0  0  0  0  0  0  0  0  0  0  0  0
   23.3706  -18.8056   -1.3050 H   0  0  0  0  0  0  0  0  0  0  0  0
   23.6234  -19.4576   -2.9792 H   0  0  0  0  0  0  0  0  0  0  0  0
   24.9458  -18.5222   -2.1596 H   0  0  0  0  0  0  0  0  0  0  0  0
  3  1  1  0  0  0  0
  4  2  1  0  0  0  0
  5  3  1  0  0  0  0
  6  4  1  0  0  0  0
  6  5  1  0  0  0  0
  8  7  2  0  0  0  0
 10  8  1  0  0  0  0
  1  9  1  0  0  0  0
  2 10  1  0  0  0  0
  2  1  1  0  0  0  0
 12 11  1  0  0  0  0
 13 11  1  0  0  0  0
  7 12  1  0  0  0  0
 14 13  1  0  0  0  0
  9  7  1  0  0  0  0
  9 14  1  0  0  0  0
  6 15  1  0  0  0  0
  4 16  1  0  0  0  0
 10 17  1  0  0  0  0
 16 17  1  0  0  0  0
 16 18  2  0  0  0  0
  1 19  1  0  0  0  0
 19 20  1  0  0  0  0
  6 20  1  0  0  0  0
 11 21  1  0  0  0  0
 21 22  1  0  0  0  0
 22 23  1  0  0  0  0
 21 24  2  0  0  0  0
 11 25  1  0  0  0  0
  4 26  1  0  0  0  0
 27 10  1  0  0  0  0
 28  2  1  0  0  0  0
 29  3  1  0  0  0  0
 30  3  1  0  0  0  0
 31  5  1  0  0  0  0
 32  5  1  0  0  0  0
 33  8  1  0  0  0  0
 34  9  1  0  0  0  0
 35 12  1  0  0  0  0
 36 12  1  0  0  0  0
 37 13  1  0  0  0  0
 38 13  1  0  0  0  0
 39 14  1  0  0  0  0
 40 14  1  0  0  0  0
 41 15  1  0  0  0  0
 42 19  1  0  0  0  0
 43 19  1  0  0  0  0
 44 22  1  0  0  0  0
 45 22  1  0  0  0  0
 46 23  1  0  0  0  0
 47 25  1  0  0  0  0
 48 25  1  0  0  0  0
 49 25  1  0  0  0  0
 50 26  1  0  0  0  0
 51 26  1  0  0  0  0
 52 26  1  0  0  0  0
M  END
