
  ACD/Labs08311009333D

 44 47  0  0  0  0  0  0  0  0  1 V2000
   13.0323  -14.5169   -0.9369 C   0  0  0  0  0  0  0  0  0  0  0  0
   13.4055  -15.6038   -1.7132 C   0  0  0  0  0  0  0  0  0  0  0  0
   11.7238  -14.3758   -0.5150 C   0  0  0  0  0  0  0  0  0  0  0  0
   12.4521  -16.5436   -2.0708 C   0  0  0  0  0  0  0  0  0  0  0  0
   10.7715  -15.3167   -0.8686 C   0  0  0  0  0  0  0  0  0  0  0  0
   11.1328  -16.4095   -1.6569 C   0  0  0  0  0  0  0  0  0  0  0  0
   15.5004  -13.9278   -0.5860 C   0  0  0  0  0  0  0  0  0  0  0  0
   15.9537  -15.0567   -1.4222 C   0  0  0  0  0  0  0  0  0  0  0  0
   14.0379  -13.5178   -0.5665 C   0  0  0  0  0  0  0  0  0  0  0  0
   14.8130  -15.7660   -2.1545 C   0  0  0  0  0  0  0  0  0  0  0  0
    9.3581  -15.1153   -0.3782 C   0  0  0  0  0  0  0  0  0  0  0  0
   10.2401  -17.3726   -2.0484 O   0  0  0  0  0  0  0  0  0  0  0  0
    8.8861  -17.5076   -1.6302 C   0  0  0  0  0  0  0  0  0  0  0  0
   13.7137  -12.3915   -0.2694 O   0  0  0  0  0  0  0  0  0  0  0  0
   15.0614  -16.4685   -3.1094 O   0  0  0  0  0  0  0  0  0  0  0  0
   16.4233  -13.6052   -1.7743 C   0  0  0  0  0  0  0  0  0  0  0  0
   17.9094  -13.4203   -1.3464 C   0  0  0  0  0  0  0  0  0  0  0  0
   18.7514  -14.6497   -1.7702 C   0  0  0  0  0  0  0  0  0  0  0  0
   18.2388  -16.0244   -1.2816 C   0  0  0  0  0  0  0  0  0  0  0  0
   16.8597  -15.9817   -0.6141 C   0  0  0  0  0  0  0  0  0  0  0  0
   18.4631  -12.1844   -2.0526 C   0  0  0  0  0  0  0  0  0  0  0  0
   18.0475  -13.2114    0.1731 C   0  0  0  0  0  0  0  0  0  0  0  0
   11.4365  -13.5035    0.1103 H   0  0  0  0  0  0  0  0  0  0  0  0
   12.7483  -17.4131   -2.6957 H   0  0  0  0  0  0  0  0  0  0  0  0
   15.5472  -13.7125    0.5030 H   0  0  0  0  0  0  0  0  0  0  0  0
    8.7598  -14.6148   -1.1694 H   0  0  0  0  0  0  0  0  0  0  0  0
    8.9052  -16.1015   -0.1397 H   0  0  0  0  0  0  0  0  0  0  0  0
    9.3699  -14.4811    0.5341 H   0  0  0  0  0  0  0  0  0  0  0  0
    8.2130  -17.1225   -2.4260 H   0  0  0  0  0  0  0  0  0  0  0  0
    8.6620  -18.5795   -1.4424 H   0  0  0  0  0  0  0  0  0  0  0  0
    8.7273  -16.9254   -0.6972 H   0  0  0  0  0  0  0  0  0  0  0  0
   16.3822  -12.9078   -2.6381 H   0  0  0  0  0  0  0  0  0  0  0  0
   18.7824  -14.6746   -2.8805 H   0  0  0  0  0  0  0  0  0  0  0  0
   19.7799  -14.5109   -1.3736 H   0  0  0  0  0  0  0  0  0  0  0  0
   18.1773  -16.7076   -2.1555 H   0  0  0  0  0  0  0  0  0  0  0  0
   18.9654  -16.4290   -0.5449 H   0  0  0  0  0  0  0  0  0  0  0  0
   16.9564  -15.5951    0.4230 H   0  0  0  0  0  0  0  0  0  0  0  0
   16.4226  -17.0029   -0.5900 H   0  0  0  0  0  0  0  0  0  0  0  0
   18.0332  -12.1188   -3.0750 H   0  0  0  0  0  0  0  0  0  0  0  0
   18.1883  -11.2749   -1.4764 H   0  0  0  0  0  0  0  0  0  0  0  0
   19.5695  -12.2615   -2.1203 H   0  0  0  0  0  0  0  0  0  0  0  0
   17.9808  -12.1269    0.4050 H   0  0  0  0  0  0  0  0  0  0  0  0
   17.2308  -13.7530    0.6968 H   0  0  0  0  0  0  0  0  0  0  0  0
   19.0305  -13.6028    0.5125 H   0  0  0  0  0  0  0  0  0  0  0  0
  3  1  1  0  0  0  0
  4  2  1  0  0  0  0
  5  3  2  0  0  0  0
  6  4  2  0  0  0  0
  6  5  1  0  0  0  0
  9  7  1  0  0  0  0
 10  8  1  0  0  0  0
  1  9  1  0  0  0  0
  2 10  1  0  0  0  0
  2  1  2  0  0  0  0
  5 11  1  0  0  0  0
  6 12  1  0  0  0  0
 12 13  1  0  0  0  0
  9 14  2  0  0  0  0
 10 15  2  0  0  0  0
 16  7  1  0  0  0  0
  8  7  1  0  0  0  0
 18 17  1  0  0  0  0
 16 17  1  0  0  0  0
 19 18  1  0  0  0  0
  8 16  1  0  0  0  0
 20 19  1  0  0  0  0
 20  8  1  0  0  0  0
 17 21  1  0  0  0  0
 17 22  1  0  0  0  0
 23  3  1  0  0  0  0
 24  4  1  0  0  0  0
 25  7  1  0  0  0  0
 26 11  1  0  0  0  0
 27 11  1  0  0  0  0
 28 11  1  0  0  0  0
 29 13  1  0  0  0  0
 30 13  1  0  0  0  0
 31 13  1  0  0  0  0
 32 16  1  0  0  0  0
 33 18  1  0  0  0  0
 34 18  1  0  0  0  0
 35 19  1  0  0  0  0
 36 19  1  0  0  0  0
 37 20  1  0  0  0  0
 38 20  1  0  0  0  0
 39 21  1  0  0  0  0
 40 21  1  0  0  0  0
 41 21  1  0  0  0  0
 42 22  1  0  0  0  0
 43 22  1  0  0  0  0
 44 22  1  0  0  0  0
M  END
