
  ACD/Labs07101015523D

 30 34  0  0  0  0  0  0  0  0  1 V2000
   18.3936  -16.8047    0.3658 C   0  0  0  0  0  0  0  0  0  0  0  0
   18.3902  -18.1907    0.4084 C   0  0  0  0  0  0  0  0  0  0  0  0
   17.3111  -16.1257   -0.1713 C   0  0  0  0  0  0  0  0  0  0  0  0
   17.3006  -18.8971   -0.0798 C   0  0  0  0  0  0  0  0  0  0  0  0
   16.2213  -16.8348   -0.6554 C   0  0  0  0  0  0  0  0  0  0  0  0
   16.2145  -18.2185   -0.6100 C   0  0  0  0  0  0  0  0  0  0  0  0
   19.5008  -14.5492    0.8203 C   0  0  0  0  0  0  0  0  0  0  0  0
   19.5386  -16.0301    0.8866 C   0  0  0  0  0  0  0  0  0  0  0  0
   18.4022  -13.9065    0.2658 C   0  0  0  0  0  0  0  0  0  0  0  0
   17.3254  -14.6439   -0.2266 C   0  0  0  0  0  0  0  0  0  0  0  0
   20.5364  -12.4159    1.2515 C   0  0  0  0  0  0  0  0  0  0  0  0
   20.5561  -13.7996    1.3101 N   0  0  0  0  0  0  0  0  0  0  0  0
   19.4467  -11.7704    0.6985 C   0  0  0  0  0  0  0  0  0  0  0  0
   18.3837  -12.5087    0.2077 C   0  0  0  0  0  0  0  0  0  0  0  0
   17.2963  -11.8402   -0.3419 C   0  0  0  0  0  0  0  0  0  0  0  0
   16.2448  -12.5967   -0.8247 C   0  0  0  0  0  0  0  0  0  0  0  0
   16.2617  -13.9527   -0.7714 C   0  0  0  0  0  0  0  0  0  0  0  0
   20.4955  -16.5983    1.3629 O   0  0  0  0  0  0  0  0  0  0  0  0
   15.1010  -12.1558   -1.3875 O   0  0  0  0  0  0  0  0  0  0  0  0
   15.1326  -14.4708   -1.2977 O   0  0  0  0  0  0  0  0  0  0  0  0
   14.3289  -13.3379   -1.6832 C   0  0  0  0  0  0  0  0  0  0  0  0
   19.2604  -18.7350    0.8336 H   0  0  0  0  0  0  0  0  0  0  0  0
   17.2976  -20.0076   -0.0463 H   0  0  0  0  0  0  0  0  0  0  0  0
   15.3504  -16.2922   -1.0812 H   0  0  0  0  0  0  0  0  0  0  0  0
   15.3397  -18.7830   -0.9979 H   0  0  0  0  0  0  0  0  0  0  0  0
   21.3912  -11.8262    1.6464 H   0  0  0  0  0  0  0  0  0  0  0  0
   19.4252  -10.6607    0.6487 H   0  0  0  0  0  0  0  0  0  0  0  0
   17.2683  -10.7307   -0.3939 H   0  0  0  0  0  0  0  0  0  0  0  0
   13.3800  -13.3288   -1.1054 H   0  0  0  0  0  0  0  0  0  0  0  0
   14.1011  -13.3836   -2.7696 H   0  0  0  0  0  0  0  0  0  0  0  0
  2  1  1  0  0  0  0
  3  1  2  0  0  0  0
  4  2  2  0  0  0  0
  5  3  1  0  0  0  0
  6  4  1  0  0  0  0
  6  5  2  0  0  0  0
  8  7  1  0  0  0  0
  1  8  1  0  0  0  0
  3 10  1  0  0  0  0
 12 11  1  0  0  0  0
 13 11  2  0  0  0  0
  7 12  2  0  0  0  0
 14 13  1  0  0  0  0
  9  7  1  0  0  0  0
 15 14  1  0  0  0  0
  9 14  2  0  0  0  0
 16 15  2  0  0  0  0
 10  9  1  0  0  0  0
 17 16  1  0  0  0  0
 17 10  2  0  0  0  0
  8 18  2  0  0  0  0
 16 19  1  0  0  0  0
 17 20  1  0  0  0  0
 20 21  1  0  0  0  0
 19 21  1  0  0  0  0
 22  2  1  0  0  0  0
 23  4  1  0  0  0  0
 24  5  1  0  0  0  0
 25  6  1  0  0  0  0
 26 11  1  0  0  0  0
 27 13  1  0  0  0  0
 28 15  1  0  0  0  0
 29 21  1  0  0  0  0
 30 21  1  0  0  0  0
M  END
