
  ACD/Labs08311009423D

 43 45  0  0  0  0  0  0  0  0  1 V2000
   17.0379  -15.2460   -1.6406 C   0  0  0  0  0  0  0  0  0  0  0  0
   17.0968  -16.6213   -1.3970 C   0  0  0  0  0  0  0  0  0  0  0  0
   15.8673  -14.6841   -2.1279 C   0  0  0  0  0  0  0  0  0  0  0  0
   15.9722  -17.3914   -1.6597 C   0  0  0  0  0  0  0  0  0  0  0  0
   14.7543  -15.4646   -2.3806 C   0  0  0  0  0  0  0  0  0  0  0  0
   14.8080  -16.8253   -2.1481 C   0  0  0  0  0  0  0  0  0  0  0  0
   18.1842  -14.2975   -1.4159 C   0  0  0  0  0  0  0  0  0  0  0  0
   19.5083  -14.9090   -1.8242 C   0  0  0  0  0  0  0  0  0  0  0  0
   18.2675  -17.3902   -0.8690 C   0  0  0  0  0  0  0  0  0  0  0  0
   19.5135  -17.0176   -0.5100 C   0  0  0  0  0  0  0  0  0  0  0  0
   20.0328  -15.5679   -0.5594 C   0  0  0  0  0  0  0  0  0  0  0  0
   20.3960  -18.1656   -0.0336 C   0  0  0  0  0  0  0  0  0  0  0  0
   21.8293  -17.7744    0.3056 C   0  0  0  0  0  0  0  0  0  0  0  0
   21.5976  -15.4465   -0.4919 C   0  0  0  0  0  0  0  0  0  0  0  0
   22.3130  -16.7812   -0.7405 C   0  0  0  0  0  0  0  0  0  0  0  0
   13.4897  -14.8324   -2.9086 C   0  0  0  0  0  0  0  0  0  0  0  0
   13.7210  -17.6042   -2.3964 O   0  0  0  0  0  0  0  0  0  0  0  0
   22.1516  -14.4254   -1.4989 C   0  0  0  0  0  0  0  0  0  0  0  0
   21.9623  -14.9500    0.9126 C   0  0  0  0  0  0  0  0  0  0  0  0
   15.8204  -13.5907   -2.3190 H   0  0  0  0  0  0  0  0  0  0  0  0
   16.0046  -18.4864   -1.4747 H   0  0  0  0  0  0  0  0  0  0  0  0
   18.0098  -13.3784   -2.0151 H   0  0  0  0  0  0  0  0  0  0  0  0
   18.2241  -14.0349   -0.3371 H   0  0  0  0  0  0  0  0  0  0  0  0
   19.3600  -15.6621   -2.6274 H   0  0  0  0  0  0  0  0  0  0  0  0
   20.2094  -14.1230   -2.1777 H   0  0  0  0  0  0  0  0  0  0  0  0
   18.1952  -18.4869   -0.7067 H   0  0  0  0  0  0  0  0  0  0  0  0
   19.6272  -15.0470    0.3341 H   0  0  0  0  0  0  0  0  0  0  0  0
   19.9328  -18.6021    0.8770 H   0  0  0  0  0  0  0  0  0  0  0  0
   20.4286  -18.9323   -0.8370 H   0  0  0  0  0  0  0  0  0  0  0  0
   21.8631  -17.3052    1.3121 H   0  0  0  0  0  0  0  0  0  0  0  0
   22.4781  -18.6762    0.2949 H   0  0  0  0  0  0  0  0  0  0  0  0
   23.4120  -16.6465   -0.6485 H   0  0  0  0  0  0  0  0  0  0  0  0
   22.0696  -17.1597   -1.7563 H   0  0  0  0  0  0  0  0  0  0  0  0
   13.4663  -14.9207   -4.0159 H   0  0  0  0  0  0  0  0  0  0  0  0
   12.6079  -15.3528   -2.4770 H   0  0  0  0  0  0  0  0  0  0  0  0
   13.4651  -13.7592   -2.6221 H   0  0  0  0  0  0  0  0  0  0  0  0
   12.8703  -17.1872   -2.7523 H   0  0  0  0  0  0  0  0  0  0  0  0
   22.3711  -14.9361   -2.4609 H   0  0  0  0  0  0  0  0  0  0  0  0
   21.3985  -13.6260   -1.6675 H   0  0  0  0  0  0  0  0  0  0  0  0
   23.0853  -13.9776   -1.0959 H   0  0  0  0  0  0  0  0  0  0  0  0
   23.0492  -14.7234    0.9543 H   0  0  0  0  0  0  0  0  0  0  0  0
   21.3832  -14.0299    1.1417 H   0  0  0  0  0  0  0  0  0  0  0  0
   21.7194  -15.7375    1.6580 H   0  0  0  0  0  0  0  0  0  0  0  0
  2  1  2  0  0  0  0
  3  1  1  0  0  0  0
  4  2  1  0  0  0  0
  5  3  2  0  0  0  0
  6  4  2  0  0  0  0
  6  5  1  0  0  0  0
  7  1  1  0  0  0  0
  8  7  1  0  0  0  0
  9  2  1  0  0  0  0
 11  8  1  0  0  0  0
 10  9  2  0  0  0  0
 12 10  1  0  0  0  0
 11 10  1  0  0  0  0
 13 12  1  0  0  0  0
 14 11  1  0  0  0  0
 15 13  1  0  0  0  0
 15 14  1  0  0  0  0
  5 16  1  0  0  0  0
  6 17  1  0  0  0  0
 14 18  1  0  0  0  0
 14 19  1  0  0  0  0
 20  3  1  0  0  0  0
 21  4  1  0  0  0  0
 22  7  1  0  0  0  0
 23  7  1  0  0  0  0
 24  8  1  0  0  0  0
 25  8  1  0  0  0  0
 26  9  1  0  0  0  0
 27 11  1  0  0  0  0
 28 12  1  0  0  0  0
 29 12  1  0  0  0  0
 30 13  1  0  0  0  0
 31 13  1  0  0  0  0
 32 15  1  0  0  0  0
 33 15  1  0  0  0  0
 34 16  1  0  0  0  0
 35 16  1  0  0  0  0
 36 16  1  0  0  0  0
 37 17  1  0  0  0  0
 38 18  1  0  0  0  0
 39 18  1  0  0  0  0
 40 18  1  0  0  0  0
 41 19  1  0  0  0  0
 42 19  1  0  0  0  0
 43 19  1  0  0  0  0
M  END
