
  ACD/Labs07111011343D

 46 47  0  0  0  0  0  0  0  0  1 V2000
   19.5900  -21.1294   -2.2396 C   0  0  0  0  0  0  0  0  0  0  0  0
   19.0192  -19.9264   -1.8569 C   0  0  0  0  0  0  0  0  0  0  0  0
   20.9686  -21.2486   -2.3200 C   0  0  0  0  0  0  0  0  0  0  0  0
   19.8240  -18.8432   -1.5531 C   0  0  0  0  0  0  0  0  0  0  0  0
   21.7788  -20.1649   -2.0203 C   0  0  0  0  0  0  0  0  0  0  0  0
   21.2035  -18.9610   -1.6357 C   0  0  0  0  0  0  0  0  0  0  0  0
   18.4233  -24.4410   -3.5708 C   0  0  0  0  0  0  0  0  0  0  0  0
   17.0955  -24.4344   -3.1611 C   0  0  0  0  0  0  0  0  0  0  0  0
   19.2396  -23.3611   -3.2715 C   0  0  0  0  0  0  0  0  0  0  0  0
   16.5929  -23.3520   -2.4539 C   0  0  0  0  0  0  0  0  0  0  0  0
   18.7345  -22.2819   -2.5614 C   0  0  0  0  0  0  0  0  0  0  0  0
   17.4126  -22.2822   -2.1549 C   0  0  0  0  0  0  0  0  0  0  0  0
   15.1917  -23.3079   -2.0237 C   0  0  0  0  0  0  0  0  0  0  0  0
   19.2078  -17.5710   -1.1424 C   0  0  0  0  0  0  0  0  0  0  0  0
   14.2286  -23.2026   -2.9465 C   0  0  0  0  0  0  0  0  0  0  0  0
   19.5965  -16.9766   -0.0051 C   0  0  0  0  0  0  0  0  0  0  0  0
   12.8222  -23.1497   -2.5351 C   0  0  0  0  0  0  0  0  0  0  0  0
   18.9713  -15.6704    0.4274 C   0  0  0  0  0  0  0  0  0  0  0  0
   12.5414  -23.0659   -1.3612 O   0  0  0  0  0  0  0  0  0  0  0  0
   17.5715  -15.8507    0.5821 O   0  0  0  0  0  0  0  0  0  0  0  0
   20.5403  -23.3589   -3.6686 O   0  0  0  0  0  0  0  0  0  0  0  0
   18.9361  -25.4994   -4.2643 O   0  0  0  0  0  0  0  0  0  0  0  0
   21.5194  -22.4314   -2.7032 O   0  0  0  0  0  0  0  0  0  0  0  0
   23.1322  -20.2962   -2.1083 O   0  0  0  0  0  0  0  0  0  0  0  0
   24.0272  -19.2785   -1.6787 C   0  0  0  0  0  0  0  0  0  0  0  0
   18.1189  -26.3764   -5.0303 C   0  0  0  0  0  0  0  0  0  0  0  0
   14.9326  -23.3520   -0.9436 H   0  0  0  0  0  0  0  0  0  0  0  0
   18.4235  -17.1049   -1.7778 H   0  0  0  0  0  0  0  0  0  0  0  0
   14.4998  -23.1579   -4.0240 H   0  0  0  0  0  0  0  0  0  0  0  0
   20.3786  -17.4488    0.6258 H   0  0  0  0  0  0  0  0  0  0  0  0
   17.9142  -19.8302   -1.7936 H   0  0  0  0  0  0  0  0  0  0  0  0
   21.8486  -18.0896   -1.3933 H   0  0  0  0  0  0  0  0  0  0  0  0
   16.4350  -25.2954   -3.3993 H   0  0  0  0  0  0  0  0  0  0  0  0
   17.0071  -21.4188   -1.5853 H   0  0  0  0  0  0  0  0  0  0  0  0
   11.9026  -23.1750   -3.1580 H   0  0  0  0  0  0  0  0  0  0  0  0
   19.3890  -15.3372    1.4015 H   0  0  0  0  0  0  0  0  0  0  0  0
   19.1382  -14.8816   -0.3370 H   0  0  0  0  0  0  0  0  0  0  0  0
   16.9263  -15.2965    0.0338 H   0  0  0  0  0  0  0  0  0  0  0  0
   21.1360  -22.5718   -3.4459 H   0  0  0  0  0  0  0  0  0  0  0  0
   22.5250  -22.5231   -2.7705 H   0  0  0  0  0  0  0  0  0  0  0  0
   24.3640  -18.6871   -2.5570 H   0  0  0  0  0  0  0  0  0  0  0  0
   23.5087  -18.6095   -0.9588 H   0  0  0  0  0  0  0  0  0  0  0  0
   24.9077  -19.7439   -1.1860 H   0  0  0  0  0  0  0  0  0  0  0  0
   18.1742  -26.0914   -6.1027 H   0  0  0  0  0  0  0  0  0  0  0  0
   18.4785  -27.4204   -4.9056 H   0  0  0  0  0  0  0  0  0  0  0  0
   17.0668  -26.3013   -4.6810 H   0  0  0  0  0  0  0  0  0  0  0  0
  2  1  1  0  0  0  0
  3  1  2  0  0  0  0
  4  2  2  0  0  0  0
  5  3  1  0  0  0  0
  6  4  1  0  0  0  0
  6  5  2  0  0  0  0
  8  7  2  0  0  0  0
  9  7  1  0  0  0  0
 10  8  1  0  0  0  0
 11  9  2  0  0  0  0
 12 10  2  0  0  0  0
 12 11  1  0  0  0  0
  1 11  1  0  0  0  0
 10 13  1  0  0  0  0
  4 14  1  0  0  0  0
 13 15  2  0  0  0  0
 14 16  2  0  0  0  0
 15 17  1  0  0  0  0
 16 18  1  0  0  0  0
 17 19  2  0  0  0  0
 18 20  1  0  0  0  0
  9 21  1  0  0  0  0
  7 22  1  0  0  0  0
  3 23  1  0  0  0  0
  5 24  1  0  0  0  0
 24 25  1  0  0  0  0
 22 26  1  0  0  0  0
 27 13  1  0  0  0  0
 28 14  1  0  0  0  0
 29 15  1  0  0  0  0
 30 16  1  0  0  0  0
 31  2  1  0  0  0  0
 32  6  1  0  0  0  0
 33  8  1  0  0  0  0
 34 12  1  0  0  0  0
 35 17  1  0  0  0  0
 36 18  1  0  0  0  0
 37 18  1  0  0  0  0
 38 20  1  0  0  0  0
 39 21  1  0  0  0  0
 40 23  1  0  0  0  0
 41 25  1  0  0  0  0
 42 25  1  0  0  0  0
 43 25  1  0  0  0  0
 44 26  1  0  0  0  0
 45 26  1  0  0  0  0
 46 26  1  0  0  0  0
M  END
