
  ACD/Labs08291008253D

 81 85  0  0  0  0  0  0  0  0  1 V2000
   14.4023  -15.4728   -2.7320 C   0  0  0  0  0  0  0  0  0  0  0  0
   14.5206  -16.9794   -2.3305 C   0  0  0  0  0  0  0  0  0  0  0  0
   12.9410  -14.9821   -2.6979 C   0  0  0  0  0  0  0  0  0  0  0  0
   13.6394  -17.8458   -3.2739 C   0  0  0  0  0  0  0  0  0  0  0  0
   12.1012  -15.7795   -3.6965 C   0  0  0  0  0  0  0  0  0  0  0  0
   12.2517  -17.2450   -3.3783 C   0  0  0  0  0  0  0  0  0  0  0  0
   16.7819  -15.0561   -1.9651 C   0  0  0  0  0  0  0  0  0  0  0  0
   16.9007  -16.5415   -1.5682 C   0  0  0  0  0  0  0  0  0  0  0  0
   15.3127  -14.5485   -1.8817 C   0  0  0  0  0  0  0  0  0  0  0  0
   15.9927  -17.4158   -2.4527 C   0  0  0  0  0  0  0  0  0  0  0  0
   17.6458  -12.6770   -1.6819 C   0  0  0  0  0  0  0  0  0  0  0  0
   17.7765  -14.1509   -1.1783 C   0  0  0  0  0  0  0  0  0  0  0  0
   16.1751  -12.2172   -1.5765 C   0  0  0  0  0  0  0  0  0  0  0  0
   15.2474  -13.1125   -2.4171 C   0  0  0  0  0  0  0  0  0  0  0  0
   19.9278  -12.3340   -0.3665 C   0  0  0  0  0  0  0  0  0  0  0  0
   20.2974  -13.5435   -1.2580 C   0  0  0  0  0  0  0  0  0  0  0  0
   18.5383  -11.7701   -0.8115 C   0  0  0  0  0  0  0  0  0  0  0  0
   19.2214  -14.6470   -1.4020 C   0  0  0  0  0  0  0  0  0  0  0  0
   20.5878   -9.8141   -0.2438 C   0  0  0  0  0  0  0  0  0  0  0  0
   21.0267  -11.2572   -0.5180 C   0  0  0  0  0  0  0  0  0  0  0  0
   19.4786   -9.4463   -1.2278 C   0  0  0  0  0  0  0  0  0  0  0  0
   18.2468  -10.2564   -0.8364 C   0  0  0  0  0  0  0  0  0  0  0  0
   11.2711  -17.9330   -3.2048 O   0  0  0  0  0  0  0  0  0  0  0  0
   13.5292  -19.2702   -2.7117 C   0  0  0  0  0  0  0  0  0  0  0  0
   14.0427  -17.1736   -0.8759 C   0  0  0  0  0  0  0  0  0  0  0  0
   14.8272  -14.5640   -0.4196 C   0  0  0  0  0  0  0  0  0  0  0  0
   17.4531  -14.2166    0.3253 C   0  0  0  0  0  0  0  0  0  0  0  0
   18.0948  -12.5842   -3.1508 C   0  0  0  0  0  0  0  0  0  0  0  0
   19.8424  -12.7639    1.1037 C   0  0  0  0  0  0  0  0  0  0  0  0
   19.1613   -7.9548   -1.1221 C   0  0  0  0  0  0  0  0  0  0  0  0
   19.8969   -9.7632   -2.6723 C   0  0  0  0  0  0  0  0  0  0  0  0
   14.1060  -17.8742   -4.2849 H   0  0  0  0  0  0  0  0  0  0  0  0
   14.7559  -15.3981   -3.7826 H   0  0  0  0  0  0  0  0  0  0  0  0
   12.5257  -15.1228   -1.6771 H   0  0  0  0  0  0  0  0  0  0  0  0
   12.9044  -13.9051   -2.9680 H   0  0  0  0  0  0  0  0  0  0  0  0
   11.0320  -15.4900   -3.6114 H   0  0  0  0  0  0  0  0  0  0  0  0
   12.4562  -15.5871   -4.7315 H   0  0  0  0  0  0  0  0  0  0  0  0
   17.0820  -14.9949   -3.0331 H   0  0  0  0  0  0  0  0  0  0  0  0
   17.9548  -16.8695   -1.6925 H   0  0  0  0  0  0  0  0  0  0  0  0
   16.5979  -16.6609   -0.5059 H   0  0  0  0  0  0  0  0  0  0  0  0
   16.0856  -18.4757   -2.1331 H   0  0  0  0  0  0  0  0  0  0  0  0
   16.3142  -17.3183   -3.5117 H   0  0  0  0  0  0  0  0  0  0  0  0
   15.8554  -12.2642   -0.5136 H   0  0  0  0  0  0  0  0  0  0  0  0
   16.0948  -11.1711   -1.9421 H   0  0  0  0  0  0  0  0  0  0  0  0
   15.5759  -13.0976   -3.4783 H   0  0  0  0  0  0  0  0  0  0  0  0
   14.2037  -12.7381   -2.3467 H   0  0  0  0  0  0  0  0  0  0  0  0
   20.5234  -13.1569   -2.2747 H   0  0  0  0  0  0  0  0  0  0  0  0
   21.2082  -14.0133   -0.8289 H   0  0  0  0  0  0  0  0  0  0  0  0
   18.0785  -11.8661    0.1954 H   0  0  0  0  0  0  0  0  0  0  0  0
   19.4350  -15.4433   -0.6572 H   0  0  0  0  0  0  0  0  0  0  0  0
   19.2891  -15.0701   -2.4270 H   0  0  0  0  0  0  0  0  0  0  0  0
   20.2068   -9.7289    0.7963 H   0  0  0  0  0  0  0  0  0  0  0  0
   21.4502   -9.1272   -0.3803 H   0  0  0  0  0  0  0  0  0  0  0  0
   21.8474  -11.5005    0.1902 H   0  0  0  0  0  0  0  0  0  0  0  0
   21.4106  -11.3009   -1.5597 H   0  0  0  0  0  0  0  0  0  0  0  0
   17.4402  -10.0539   -1.5730 H   0  0  0  0  0  0  0  0  0  0  0  0
   17.9161   -9.9335    0.1739 H   0  0  0  0  0  0  0  0  0  0  0  0
   13.9174  -19.9942   -3.4598 H   0  0  0  0  0  0  0  0  0  0  0  0
   14.1266  -19.3466   -1.7779 H   0  0  0  0  0  0  0  0  0  0  0  0
   12.4646  -19.4999   -2.4919 H   0  0  0  0  0  0  0  0  0  0  0  0
   14.3415  -18.1829   -0.5200 H   0  0  0  0  0  0  0  0  0  0  0  0
   14.5069  -16.3999   -0.2275 H   0  0  0  0  0  0  0  0  0  0  0  0
   12.9364  -17.0788   -0.8342 H   0  0  0  0  0  0  0  0  0  0  0  0
   15.3101  -15.4056    0.1217 H   0  0  0  0  0  0  0  0  0  0  0  0
   15.0985  -13.6044    0.0705 H   0  0  0  0  0  0  0  0  0  0  0  0
   13.7239  -14.6940   -0.3974 H   0  0  0  0  0  0  0  0  0  0  0  0
   18.1881  -14.8771    0.8333 H   0  0  0  0  0  0  0  0  0  0  0  0
   17.5096  -13.1960    0.7609 H   0  0  0  0  0  0  0  0  0  0  0  0
   16.4293  -14.6248    0.4661 H   0  0  0  0  0  0  0  0  0  0  0  0
   18.7779  -13.4292   -3.3829 H   0  0  0  0  0  0  0  0  0  0  0  0
   17.2046  -12.6349   -3.8138 H   0  0  0  0  0  0  0  0  0  0  0  0
   18.6265  -11.6225   -3.3151 H   0  0  0  0  0  0  0  0  0  0  0  0
   20.5485  -13.6022    1.2857 H   0  0  0  0  0  0  0  0  0  0  0  0
   20.1106  -11.9055    1.7563 H   0  0  0  0  0  0  0  0  0  0  0  0
   18.8069  -13.0957    1.3325 H   0  0  0  0  0  0  0  0  0  0  0  0
   19.4613   -7.4452   -2.0627 H   0  0  0  0  0  0  0  0  0  0  0  0
   18.0706   -7.8193   -0.9591 H   0  0  0  0  0  0  0  0  0  0  0  0
   19.7222   -7.5169   -0.2687 H   0  0  0  0  0  0  0  0  0  0  0  0
   20.8646   -9.2647   -2.8951 H   0  0  0  0  0  0  0  0  0  0  0  0
   20.0103  -10.8620   -2.7921 H   0  0  0  0  0  0  0  0  0  0  0  0
   19.1189   -9.3911   -3.3729 H   0  0  0  0  0  0  0  0  0  0  0  0
  3  1  1  0  0  0  0
  4  2  1  0  0  0  0
  5  3  1  0  0  0  0
  6  4  1  0  0  0  0
  6  5  1  0  0  0  0
  8  7  1  0  0  0  0
 10  8  1  0  0  0  0
  1  9  1  0  0  0  0
  2 10  1  0  0  0  0
  2  1  1  0  0  0  0
 13 11  1  0  0  0  0
  7 12  1  0  0  0  0
 14 13  1  0  0  0  0
  9  7  1  0  0  0  0
  9 14  1  0  0  0  0
 16 15  1  0  0  0  0
 18 16  1  0  0  0  0
 11 17  1  0  0  0  0
 12 18  1  0  0  0  0
 12 11  1  0  0  0  0
 20 19  1  0  0  0  0
 21 19  1  0  0  0  0
 15 20  1  0  0  0  0
 22 21  1  0  0  0  0
 17 15  1  0  0  0  0
 17 22  1  0  0  0  0
  6 23  2  0  0  0  0
  4 24  1  0  0  0  0
  2 25  1  0  0  0  0
  9 26  1  0  0  0  0
 12 27  1  0  0  0  0
 11 28  1  0  0  0  0
 15 29  1  0  0  0  0
 21 30  1  0  0  0  0
 21 31  1  0  0  0  0
 32  4  1  0  0  0  0
 33  1  1  0  0  0  0
 34  3  1  0  0  0  0
 35  3  1  0  0  0  0
 36  5  1  0  0  0  0
 37  5  1  0  0  0  0
 38  7  1  0  0  0  0
 39  8  1  0  0  0  0
 40  8  1  0  0  0  0
 41 10  1  0  0  0  0
 42 10  1  0  0  0  0
 43 13  1  0  0  0  0
 44 13  1  0  0  0  0
 45 14  1  0  0  0  0
 46 14  1  0  0  0  0
 47 16  1  0  0  0  0
 48 16  1  0  0  0  0
 49 17  1  0  0  0  0
 50 18  1  0  0  0  0
 51 18  1  0  0  0  0
 52 19  1  0  0  0  0
 53 19  1  0  0  0  0
 54 20  1  0  0  0  0
 55 20  1  0  0  0  0
 56 22  1  0  0  0  0
 57 22  1  0  0  0  0
 58 24  1  0  0  0  0
 59 24  1  0  0  0  0
 60 24  1  0  0  0  0
 61 25  1  0  0  0  0
 62 25  1  0  0  0  0
 63 25  1  0  0  0  0
 64 26  1  0  0  0  0
 65 26  1  0  0  0  0
 66 26  1  0  0  0  0
 67 27  1  0  0  0  0
 68 27  1  0  0  0  0
 69 27  1  0  0  0  0
 70 28  1  0  0  0  0
 71 28  1  0  0  0  0
 72 28  1  0  0  0  0
 73 29  1  0  0  0  0
 74 29  1  0  0  0  0
 75 29  1  0  0  0  0
 76 30  1  0  0  0  0
 77 30  1  0  0  0  0
 78 30  1  0  0  0  0
 79 31  1  0  0  0  0
 80 31  1  0  0  0  0
 81 31  1  0  0  0  0
M  END
