
  ACD/Labs08291019313D

 35 37  0  0  0  0  0  0  0  0  1 V2000
   11.7793  -16.4651    0.1006 C   0  0  0  0  0  0  0  0  0  0  0  0
   11.4309  -17.7340    0.5452 C   0  0  0  0  0  0  0  0  0  0  0  0
   10.8543  -15.4349    0.1724 C   0  0  0  0  0  0  0  0  0  0  0  0
   10.1626  -17.9711    1.0539 C   0  0  0  0  0  0  0  0  0  0  0  0
    9.5889  -15.6721    0.6862 C   0  0  0  0  0  0  0  0  0  0  0  0
    9.2415  -16.9395    1.1261 C   0  0  0  0  0  0  0  0  0  0  0  0
   14.1142  -17.0798   -0.0371 C   0  0  0  0  0  0  0  0  0  0  0  0
   13.6905  -18.5252   -0.3127 C   0  0  0  0  0  0  0  0  0  0  0  0
   13.0299  -16.2304   -0.4008 O   0  0  0  0  0  0  0  0  0  0  0  0
   12.4371  -18.8674    0.4993 C   0  0  0  0  0  0  0  0  0  0  0  0
   15.3558  -16.7517   -0.8529 C   0  0  0  0  0  0  0  0  0  0  0  0
   15.5334  -15.4927   -1.4106 C   0  0  0  0  0  0  0  0  0  0  0  0
   16.3230  -17.7279   -1.0446 C   0  0  0  0  0  0  0  0  0  0  0  0
   16.6705  -15.2202   -2.1585 C   0  0  0  0  0  0  0  0  0  0  0  0
   17.4572  -17.4565   -1.7904 C   0  0  0  0  0  0  0  0  0  0  0  0
   17.6302  -16.2023   -2.3501 C   0  0  0  0  0  0  0  0  0  0  0  0
    8.6869  -14.6594    0.7602 O   0  0  0  0  0  0  0  0  0  0  0  0
    9.8229  -19.2153    1.4873 O   0  0  0  0  0  0  0  0  0  0  0  0
   14.7424  -19.4013    0.0617 O   0  0  0  0  0  0  0  0  0  0  0  0
   16.8470  -13.9888   -2.7087 O   0  0  0  0  0  0  0  0  0  0  0  0
   18.7415  -15.9342   -3.0877 O   0  0  0  0  0  0  0  0  0  0  0  0
   13.4693  -18.6404   -1.3986 H   0  0  0  0  0  0  0  0  0  0  0  0
   11.1275  -14.4181   -0.1822 H   0  0  0  0  0  0  0  0  0  0  0  0
    8.2263  -17.1283    1.5361 H   0  0  0  0  0  0  0  0  0  0  0  0
   14.3109  -16.8820    1.0383 H   0  0  0  0  0  0  0  0  0  0  0  0
   12.7402  -19.1079    1.5407 H   0  0  0  0  0  0  0  0  0  0  0  0
   11.9455  -19.7528    0.0423 H   0  0  0  0  0  0  0  0  0  0  0  0
   14.7660  -14.7038   -1.2585 H   0  0  0  0  0  0  0  0  0  0  0  0
   16.1881  -18.7359   -0.5972 H   0  0  0  0  0  0  0  0  0  0  0  0
   18.2270  -18.2435   -1.9394 H   0  0  0  0  0  0  0  0  0  0  0  0
    7.7632  -14.8311    1.1361 H   0  0  0  0  0  0  0  0  0  0  0  0
    8.8983  -19.3857    1.8617 H   0  0  0  0  0  0  0  0  0  0  0  0
   15.1675  -20.0060   -0.6296 H   0  0  0  0  0  0  0  0  0  0  0  0
   17.6759  -13.7929   -3.2551 H   0  0  0  0  0  0  0  0  0  0  0  0
   19.4415  -16.6516   -3.2271 H   0  0  0  0  0  0  0  0  0  0  0  0
  3  1  2  0  0  0  0
  4  2  2  0  0  0  0
  5  3  1  0  0  0  0
  6  4  1  0  0  0  0
  6  5  2  0  0  0  0
  8  7  1  0  0  0  0
  9  7  1  0  0  0  0
 10  8  1  0  0  0  0
  1  9  1  0  0  0  0
  2 10  1  0  0  0  0
  2  1  1  0  0  0  0
 12 11  2  0  0  0  0
 13 11  1  0  0  0  0
 14 12  1  0  0  0  0
 15 13  2  0  0  0  0
 16 14  2  0  0  0  0
 16 15  1  0  0  0  0
  7 11  1  0  0  0  0
  5 17  1  0  0  0  0
  4 18  1  0  0  0  0
  8 19  1  0  0  0  0
 14 20  1  0  0  0  0
 16 21  1  0  0  0  0
 22  8  1  0  0  0  0
 23  3  1  0  0  0  0
 24  6  1  0  0  0  0
 25  7  1  0  0  0  0
 26 10  1  0  0  0  0
 27 10  1  0  0  0  0
 28 12  1  0  0  0  0
 29 13  1  0  0  0  0
 30 15  1  0  0  0  0
 31 17  1  0  0  0  0
 32 18  1  0  0  0  0
 33 19  1  0  0  0  0
 34 20  1  0  0  0  0
 35 21  1  0  0  0  0
M  END
