
  ACD/Labs07111023583D

 41 43  0  0  0  0  0  0  0  0  1 V2000
   17.9584  -12.1180    0.1948 C   0  0  0  0  0  0  0  0  0  0  0  0
   18.8498  -13.1507   -0.0361 C   0  0  0  0  0  0  0  0  0  0  0  0
   16.6627  -12.4112    0.5934 C   0  0  0  0  0  0  0  0  0  0  0  0
   18.4629  -14.4686    0.1269 C   0  0  0  0  0  0  0  0  0  0  0  0
   16.2658  -13.7315    0.7596 C   0  0  0  0  0  0  0  0  0  0  0  0
   17.1682  -14.7639    0.5267 C   0  0  0  0  0  0  0  0  0  0  0  0
   19.6176  -10.4598   -0.4334 C   0  0  0  0  0  0  0  0  0  0  0  0
   20.5430  -11.4042   -0.6856 C   0  0  0  0  0  0  0  0  0  0  0  0
   18.3680  -10.8183    0.0189 O   0  0  0  0  0  0  0  0  0  0  0  0
   20.2066  -12.8170   -0.4539 C   0  0  0  0  0  0  0  0  0  0  0  0
   19.9588   -9.0290   -0.6358 C   0  0  0  0  0  0  0  0  0  0  0  0
   18.9841   -8.0513   -0.4991 C   0  0  0  0  0  0  0  0  0  0  0  0
   21.2554   -8.6587   -0.9650 C   0  0  0  0  0  0  0  0  0  0  0  0
   19.3045   -6.7151   -0.6934 C   0  0  0  0  0  0  0  0  0  0  0  0
   21.5776   -7.3248   -1.1604 C   0  0  0  0  0  0  0  0  0  0  0  0
   20.6005   -6.3524   -1.0273 C   0  0  0  0  0  0  0  0  0  0  0  0
   19.3532  -15.4704   -0.1008 O   0  0  0  0  0  0  0  0  0  0  0  0
   21.0428  -13.6815   -0.5830 O   0  0  0  0  0  0  0  0  0  0  0  0
   14.9839  -13.9973    1.1505 O   0  0  0  0  0  0  0  0  0  0  0  0
   20.9146   -5.0428   -1.2236 O   0  0  0  0  0  0  0  0  0  0  0  0
   14.4957  -15.3154    1.3730 C   0  0  0  0  0  0  0  0  0  0  0  0
   16.7698  -16.0597    0.6949 O   0  0  0  0  0  0  0  0  0  0  0  0
   21.7799  -11.0400   -1.1305 O   0  0  0  0  0  0  0  0  0  0  0  0
   17.6878  -17.1476    0.7267 C   0  0  0  0  0  0  0  0  0  0  0  0
   22.8151  -11.9881   -1.3590 C   0  0  0  0  0  0  0  0  0  0  0  0
   15.9414  -11.5870    0.7800 H   0  0  0  0  0  0  0  0  0  0  0  0
   17.9445   -8.3390   -0.2334 H   0  0  0  0  0  0  0  0  0  0  0  0
   22.0416   -9.4362   -1.0730 H   0  0  0  0  0  0  0  0  0  0  0  0
   18.5221   -5.9343   -0.5815 H   0  0  0  0  0  0  0  0  0  0  0  0
   22.6175   -7.0354   -1.4233 H   0  0  0  0  0  0  0  0  0  0  0  0
   19.0718  -16.4348    0.0213 H   0  0  0  0  0  0  0  0  0  0  0  0
   21.8613   -4.7804   -1.4665 H   0  0  0  0  0  0  0  0  0  0  0  0
   14.0813  -15.7213    0.4254 H   0  0  0  0  0  0  0  0  0  0  0  0
   15.3278  -15.9642    1.7212 H   0  0  0  0  0  0  0  0  0  0  0  0
   13.6970  -15.2886    2.1450 H   0  0  0  0  0  0  0  0  0  0  0  0
   17.7347  -17.6216   -0.2771 H   0  0  0  0  0  0  0  0  0  0  0  0
   18.6957  -16.7732    1.0067 H   0  0  0  0  0  0  0  0  0  0  0  0
   17.3483  -17.8964    1.4742 H   0  0  0  0  0  0  0  0  0  0  0  0
   22.7966  -12.3068   -2.4232 H   0  0  0  0  0  0  0  0  0  0  0  0
   23.7984  -11.5251   -1.1282 H   0  0  0  0  0  0  0  0  0  0  0  0
   22.6578  -12.8724   -0.7049 H   0  0  0  0  0  0  0  0  0  0  0  0
  3  1  1  0  0  0  0
  4  2  1  0  0  0  0
  5  3  2  0  0  0  0
  6  4  2  0  0  0  0
  6  5  1  0  0  0  0
  8  7  2  0  0  0  0
  9  7  1  0  0  0  0
 10  8  1  0  0  0  0
  1  9  1  0  0  0  0
  2 10  1  0  0  0  0
  2  1  2  0  0  0  0
 12 11  2  0  0  0  0
 13 11  1  0  0  0  0
 14 12  1  0  0  0  0
 15 13  2  0  0  0  0
 16 14  2  0  0  0  0
 16 15  1  0  0  0  0
  7 11  1  0  0  0  0
  4 17  1  0  0  0  0
 10 18  2  0  0  0  0
  5 19  1  0  0  0  0
 16 20  1  0  0  0  0
 19 21  1  0  0  0  0
  6 22  1  0  0  0  0
  8 23  1  0  0  0  0
 22 24  1  0  0  0  0
 23 25  1  0  0  0  0
 26  3  1  0  0  0  0
 27 12  1  0  0  0  0
 28 13  1  0  0  0  0
 29 14  1  0  0  0  0
 30 15  1  0  0  0  0
 31 17  1  0  0  0  0
 32 20  1  0  0  0  0
 33 21  1  0  0  0  0
 34 21  1  0  0  0  0
 35 21  1  0  0  0  0
 36 24  1  0  0  0  0
 37 24  1  0  0  0  0
 38 24  1  0  0  0  0
 39 25  1  0  0  0  0
 40 25  1  0  0  0  0
 41 25  1  0  0  0  0
M  END
