
  ACD/Labs07111023593D

 40 42  0  0  0  0  0  0  0  0  1 V2000
   17.5524  -13.7459   -1.8505 C   0  0  0  0  0  0  0  0  0  0  0  0
   18.6626  -14.4949   -2.0017 C   0  0  0  0  0  0  0  0  0  0  0  0
   16.2737  -14.3848   -1.4765 C   0  0  0  0  0  0  0  0  0  0  0  0
   18.5974  -15.9579   -1.8187 C   0  0  0  0  0  0  0  0  0  0  0  0
   16.2008  -15.8535   -1.3171 C   0  0  0  0  0  0  0  0  0  0  0  0
   17.3100  -16.5990   -1.4810 C   0  0  0  0  0  0  0  0  0  0  0  0
   18.9567  -11.7229   -1.4918 C   0  0  0  0  0  0  0  0  0  0  0  0
   20.1096  -12.5323   -2.1113 C   0  0  0  0  0  0  0  0  0  0  0  0
   17.6245  -12.2408   -2.0620 C   0  0  0  0  0  0  0  0  0  0  0  0
   19.9478  -13.8479   -2.3397 C   0  0  0  0  0  0  0  0  0  0  0  0
   19.9675   -9.9916   -3.0869 C   0  0  0  0  0  0  0  0  0  0  0  0
   21.3301  -10.6315   -2.9312 C   0  0  0  0  0  0  0  0  0  0  0  0
   19.1041  -10.2040   -1.8247 C   0  0  0  0  0  0  0  0  0  0  0  0
   21.3793  -11.8780   -2.4521 C   0  0  0  0  0  0  0  0  0  0  0  0
   18.9809  -11.8992    0.0304 C   0  0  0  0  0  0  0  0  0  0  0  0
   17.8137   -9.6581   -2.0534 O   0  0  0  0  0  0  0  0  0  0  0  0
   15.2897  -13.7063   -1.2883 O   0  0  0  0  0  0  0  0  0  0  0  0
   15.0043  -16.4315   -1.0024 O   0  0  0  0  0  0  0  0  0  0  0  0
   19.5956  -16.6295   -1.9455 O   0  0  0  0  0  0  0  0  0  0  0  0
   22.7005  -12.5960   -2.2783 C   0  0  0  0  0  0  0  0  0  0  0  0
   14.8251  -17.8392   -0.8861 C   0  0  0  0  0  0  0  0  0  0  0  0
   23.6613  -12.0673   -3.1798 O   0  0  0  0  0  0  0  0  0  0  0  0
   19.5944   -9.6937   -0.9642 H   0  0  0  0  0  0  0  0  0  0  0  0
   17.1695  -17.6925   -1.3440 H   0  0  0  0  0  0  0  0  0  0  0  0
   17.5670  -12.0176   -3.1488 H   0  0  0  0  0  0  0  0  0  0  0  0
   16.7749  -11.7533   -1.5378 H   0  0  0  0  0  0  0  0  0  0  0  0
   20.8238  -14.3692   -2.7814 H   0  0  0  0  0  0  0  0  0  0  0  0
   20.1048   -8.9032   -3.2625 H   0  0  0  0  0  0  0  0  0  0  0  0
   19.4597  -10.4475   -3.9636 H   0  0  0  0  0  0  0  0  0  0  0  0
   22.3144  -10.1768   -3.1736 H   0  0  0  0  0  0  0  0  0  0  0  0
   17.9804  -12.2327    0.3802 H   0  0  0  0  0  0  0  0  0  0  0  0
   19.7414  -12.6622    0.3024 H   0  0  0  0  0  0  0  0  0  0  0  0
   19.2373  -10.9308    0.5110 H   0  0  0  0  0  0  0  0  0  0  0  0
   17.4692   -8.9101   -1.4653 H   0  0  0  0  0  0  0  0  0  0  0  0
   23.0870  -12.4604   -1.2456 H   0  0  0  0  0  0  0  0  0  0  0  0
   22.5881  -13.6803   -2.4928 H   0  0  0  0  0  0  0  0  0  0  0  0
   14.4835  -18.2504   -1.8601 H   0  0  0  0  0  0  0  0  0  0  0  0
   15.7894  -18.3127   -0.6020 H   0  0  0  0  0  0  0  0  0  0  0  0
   14.0625  -18.0519   -0.1065 H   0  0  0  0  0  0  0  0  0  0  0  0
   24.1035  -12.6721   -3.8601 H   0  0  0  0  0  0  0  0  0  0  0  0
  2  1  2  0  0  0  0
  3  1  1  0  0  0  0
  4  2  1  0  0  0  0
  5  3  1  0  0  0  0
  6  4  1  0  0  0  0
  6  5  2  0  0  0  0
  9  7  1  0  0  0  0
 10  8  2  0  0  0  0
  1  9  1  0  0  0  0
  2 10  1  0  0  0  0
 12 11  1  0  0  0  0
 13 11  1  0  0  0  0
 14 12  2  0  0  0  0
  7 13  1  0  0  0  0
  8 14  1  0  0  0  0
  8  7  1  0  0  0  0
  7 15  1  0  0  0  0
 13 16  1  0  0  0  0
  3 17  2  0  0  0  0
  5 18  1  0  0  0  0
  4 19  2  0  0  0  0
 14 20  1  0  0  0  0
 18 21  1  0  0  0  0
 20 22  1  0  0  0  0
 23 13  1  0  0  0  0
 24  6  1  0  0  0  0
 25  9  1  0  0  0  0
 26  9  1  0  0  0  0
 27 10  1  0  0  0  0
 28 11  1  0  0  0  0
 29 11  1  0  0  0  0
 30 12  1  0  0  0  0
 31 15  1  0  0  0  0
 32 15  1  0  0  0  0
 33 15  1  0  0  0  0
 34 16  1  0  0  0  0
 35 20  1  0  0  0  0
 36 20  1  0  0  0  0
 37 21  1  0  0  0  0
 38 21  1  0  0  0  0
 39 21  1  0  0  0  0
 40 22  1  0  0  0  0
M  END
