
  ACD/Labs07111011263D

 50 54  0  0  0  0  0  0  0  0  1 V2000
   11.5989  -11.9935   -1.1275 C   0  0  0  0  0  0  0  0  0  0  0  0
   11.6648  -13.3605   -1.0609 C   0  0  0  0  0  0  0  0  0  0  0  0
   10.4039  -11.3022   -1.1607 C   0  0  0  0  0  0  0  0  0  0  0  0
   10.5140  -14.1237   -1.0244 C   0  0  0  0  0  0  0  0  0  0  0  0
    9.2386  -12.0596   -1.1243 C   0  0  0  0  0  0  0  0  0  0  0  0
    9.2952  -13.4520   -1.0573 C   0  0  0  0  0  0  0  0  0  0  0  0
   12.8881  -11.5372   -1.1477 C   0  0  0  0  0  0  0  0  0  0  0  0
   13.6959  -12.6473   -1.0866 C   0  0  0  0  0  0  0  0  0  0  0  0
   12.9497  -13.7709   -1.0359 N   0  0  0  0  0  0  0  0  0  0  0  0
   13.3800  -10.1160   -1.2175 C   0  0  0  0  0  0  0  0  0  0  0  0
   14.8877  -10.1128   -0.9015 C   0  0  0  0  0  0  0  0  0  0  0  0
   15.1977  -12.5255   -1.0545 C   0  0  0  0  0  0  0  0  0  0  0  0
   15.5837  -11.2066   -1.6114 N   0  0  0  0  0  0  0  0  0  0  0  0
   15.8496  -13.6426   -1.8895 C   0  0  0  0  0  0  0  0  0  0  0  0
   17.3581  -13.4393   -1.6596 C   0  0  0  0  0  0  0  0  0  0  0  0
   17.0369  -10.9735   -1.5118 C   0  0  0  0  0  0  0  0  0  0  0  0
   17.7684  -12.0939   -2.2508 C   0  0  0  0  0  0  0  0  0  0  0  0
   18.1660  -14.5488   -2.3307 C   0  0  0  0  0  0  0  0  0  0  0  0
   19.3934  -14.2757   -2.8073 C   0  0  0  0  0  0  0  0  0  0  0  0
   19.2696  -11.9215   -2.1006 C   0  0  0  0  0  0  0  0  0  0  0  0
   19.9343  -13.0201   -2.7189 O   0  0  0  0  0  0  0  0  0  0  0  0
   19.7059  -10.6177   -2.7718 C   0  0  0  0  0  0  0  0  0  0  0  0
   17.6618  -15.9270   -2.4419 C   0  0  0  0  0  0  0  0  0  0  0  0
   18.4177  -16.8136   -2.7704 O   0  0  0  0  0  0  0  0  0  0  0  0
   16.3623  -16.2130   -2.1747 O   0  0  0  0  0  0  0  0  0  0  0  0
   15.9221  -17.5591   -2.2667 C   0  0  0  0  0  0  0  0  0  0  0  0
   15.5468  -12.6140    0.0000 H   0  0  0  0  0  0  0  0  0  0  0  0
   17.5639  -13.4592   -0.5638 H   0  0  0  0  0  0  0  0  0  0  0  0
   17.4981  -12.0585   -3.3307 H   0  0  0  0  0  0  0  0  0  0  0  0
   19.5318  -11.8903   -1.0192 H   0  0  0  0  0  0  0  0  0  0  0  0
   10.3811  -10.1927   -1.2141 H   0  0  0  0  0  0  0  0  0  0  0  0
   10.5665  -15.2322   -0.9707 H   0  0  0  0  0  0  0  0  0  0  0  0
    8.2530  -11.5475   -1.1489 H   0  0  0  0  0  0  0  0  0  0  0  0
    8.3513  -14.0372   -1.0296 H   0  0  0  0  0  0  0  0  0  0  0  0
   13.2984  -14.7643   -0.9869 H   0  0  0  0  0  0  0  0  0  0  0  0
   13.2004   -9.7143   -2.2377 H   0  0  0  0  0  0  0  0  0  0  0  0
   12.8303   -9.4997   -0.4742 H   0  0  0  0  0  0  0  0  0  0  0  0
   15.3392   -9.1496   -1.2216 H   0  0  0  0  0  0  0  0  0  0  0  0
   15.0458  -10.2522    0.1894 H   0  0  0  0  0  0  0  0  0  0  0  0
   15.5262  -14.6437   -1.5323 H   0  0  0  0  0  0  0  0  0  0  0  0
   15.5948  -13.5326   -2.9652 H   0  0  0  0  0  0  0  0  0  0  0  0
   17.2759   -9.9895   -1.9689 H   0  0  0  0  0  0  0  0  0  0  0  0
   17.3274  -10.9647   -0.4395 H   0  0  0  0  0  0  0  0  0  0  0  0
   19.9689  -15.0996   -3.2810 H   0  0  0  0  0  0  0  0  0  0  0  0
   19.6656  -10.7382   -3.8756 H   0  0  0  0  0  0  0  0  0  0  0  0
   19.0235   -9.7966   -2.4639 H   0  0  0  0  0  0  0  0  0  0  0  0
   20.7450  -10.3727   -2.4639 H   0  0  0  0  0  0  0  0  0  0  0  0
   15.8284  -17.8455   -3.3361 H   0  0  0  0  0  0  0  0  0  0  0  0
   16.6595  -18.2243   -1.7685 H   0  0  0  0  0  0  0  0  0  0  0  0
   14.9341  -17.6601   -1.7685 H   0  0  0  0  0  0  0  0  0  0  0  0
  3  1  2  0  0  0  0
  4  2  2  0  0  0  0
  5  3  1  0  0  0  0
  6  4  1  0  0  0  0
  6  5  2  0  0  0  0
  7  1  1  0  0  0  0
  2  1  1  0  0  0  0
  9  2  1  0  0  0  0
  9  8  1  0  0  0  0
 10  7  1  0  0  0  0
  8  7  2  0  0  0  0
 11 10  1  0  0  0  0
 12  8  1  0  0  0  0
 13 11  1  0  0  0  0
 14 12  1  0  0  0  0
 13 12  1  0  0  0  0
 15 14  1  0  0  0  0
 16 13  1  0  0  0  0
 17 16  1  0  0  0  0
 18 15  1  0  0  0  0
 17 15  1  0  0  0  0
 19 18  2  0  0  0  0
 20 17  1  0  0  0  0
 21 19  1  0  0  0  0
 21 20  1  0  0  0  0
 20 22  1  0  0  0  0
 24 23  2  0  0  0  0
 25 23  1  0  0  0  0
 18 23  1  0  0  0  0
 25 26  1  0  0  0  0
 27 12  1  0  0  0  0
 28 15  1  0  0  0  0
 29 17  1  0  0  0  0
 30 20  1  0  0  0  0
 31  3  1  0  0  0  0
 32  4  1  0  0  0  0
 33  5  1  0  0  0  0
 34  6  1  0  0  0  0
 35  9  1  0  0  0  0
 36 10  1  0  0  0  0
 37 10  1  0  0  0  0
 38 11  1  0  0  0  0
 39 11  1  0  0  0  0
 40 14  1  0  0  0  0
 41 14  1  0  0  0  0
 42 16  1  0  0  0  0
 43 16  1  0  0  0  0
 44 19  1  0  0  0  0
 45 22  1  0  0  0  0
 46 22  1  0  0  0  0
 47 22  1  0  0  0  0
 48 26  1  0  0  0  0
 49 26  1  0  0  0  0
 50 26  1  0  0  0  0
M  END
