
  ACD/Labs07101015313D

 43 45  0  0  0  0  0  0  0  0  1 V2000
   14.4917  -15.3593   -3.4352 C   0  0  0  0  0  0  0  0  0  0  0  0
   14.4788  -14.7741   -2.1792 C   0  0  0  0  0  0  0  0  0  0  0  0
   13.3281  -15.8929   -3.9657 C   0  0  0  0  0  0  0  0  0  0  0  0
   13.2994  -14.7167   -1.4429 C   0  0  0  0  0  0  0  0  0  0  0  0
   12.1511  -15.8391   -3.2372 C   0  0  0  0  0  0  0  0  0  0  0  0
   12.1365  -15.2541   -1.9807 C   0  0  0  0  0  0  0  0  0  0  0  0
   15.6467  -14.2450   -1.6618 C   0  0  0  0  0  0  0  0  0  0  0  0
   15.6412  -13.6572   -0.4101 C   0  0  0  0  0  0  0  0  0  0  0  0
   14.4751  -13.5902    0.3378 C   0  0  0  0  0  0  0  0  0  0  0  0
   13.2972  -14.1251   -0.1828 C   0  0  0  0  0  0  0  0  0  0  0  0
   14.4775  -12.9938    1.5968 C   0  0  0  0  0  0  0  0  0  0  0  0
   13.3018  -12.9392    2.3278 C   0  0  0  0  0  0  0  0  0  0  0  0
   12.1276  -14.0620    0.5608 C   0  0  0  0  0  0  0  0  0  0  0  0
   12.1302  -13.4720    1.8151 C   0  0  0  0  0  0  0  0  0  0  0  0
   15.7386  -12.3731    2.1910 C   0  0  0  0  0  0  0  0  0  0  0  0
   16.9759  -13.2653    2.0404 C   0  0  0  0  0  0  0  0  0  0  0  0
   18.1850  -12.4280    2.1025 N   0  0  0  0  0  0  0  0  0  0  0  0
   10.9786  -13.4130    2.5383 O   0  0  0  0  0  0  0  0  0  0  0  0
   10.9801  -14.5868    0.0477 O   0  0  0  0  0  0  0  0  0  0  0  0
    9.7115  -13.9801    0.2655 C   0  0  0  0  0  0  0  0  0  0  0  0
   18.5631  -12.1609    3.4992 C   0  0  0  0  0  0  0  0  0  0  0  0
   19.2895  -13.1046    1.4060 C   0  0  0  0  0  0  0  0  0  0  0  0
   15.4367  -15.4007   -4.0181 H   0  0  0  0  0  0  0  0  0  0  0  0
   13.3388  -16.3626   -4.9724 H   0  0  0  0  0  0  0  0  0  0  0  0
   11.2172  -16.2660   -3.6615 H   0  0  0  0  0  0  0  0  0  0  0  0
   11.1888  -15.2157   -1.4022 H   0  0  0  0  0  0  0  0  0  0  0  0
   16.5877  -14.2920   -2.2507 H   0  0  0  0  0  0  0  0  0  0  0  0
   16.5836  -13.2343   -0.0011 H   0  0  0  0  0  0  0  0  0  0  0  0
   13.2985  -12.4648    3.3324 H   0  0  0  0  0  0  0  0  0  0  0  0
   15.9318  -11.4078    1.6759 H   0  0  0  0  0  0  0  0  0  0  0  0
   15.5636  -12.1878    3.2723 H   0  0  0  0  0  0  0  0  0  0  0  0
   17.0163  -14.0118    2.8622 H   0  0  0  0  0  0  0  0  0  0  0  0
   16.9561  -13.7915    1.0621 H   0  0  0  0  0  0  0  0  0  0  0  0
   10.1232  -13.7994    2.1601 H   0  0  0  0  0  0  0  0  0  0  0  0
    9.6910  -12.9809   -0.2199 H   0  0  0  0  0  0  0  0  0  0  0  0
    8.9154  -14.6203   -0.1714 H   0  0  0  0  0  0  0  0  0  0  0  0
    9.5389  -13.8651    1.3571 H   0  0  0  0  0  0  0  0  0  0  0  0
   18.6195  -11.0635    3.6638 H   0  0  0  0  0  0  0  0  0  0  0  0
   17.8008  -12.5985    4.1790 H   0  0  0  0  0  0  0  0  0  0  0  0
   19.5540  -12.6180    3.7081 H   0  0  0  0  0  0  0  0  0  0  0  0
   19.7048  -12.4293    0.6274 H   0  0  0  0  0  0  0  0  0  0  0  0
   20.0861  -13.3608    2.1370 H   0  0  0  0  0  0  0  0  0  0  0  0
   18.9114  -14.0332    0.9272 H   0  0  0  0  0  0  0  0  0  0  0  0
  2  1  1  0  0  0  0
  3  1  2  0  0  0  0
  4  2  2  0  0  0  0
  5  3  1  0  0  0  0
  6  4  1  0  0  0  0
  6  5  2  0  0  0  0
  8  7  2  0  0  0  0
  2  7  1  0  0  0  0
  9  8  1  0  0  0  0
 10  4  1  0  0  0  0
 11  9  1  0  0  0  0
 10  9  2  0  0  0  0
 12 11  2  0  0  0  0
 13 10  1  0  0  0  0
 14 12  1  0  0  0  0
 14 13  2  0  0  0  0
 15 11  1  0  0  0  0
 16 15  1  0  0  0  0
 17 16  1  0  0  0  0
 14 18  1  0  0  0  0
 13 19  1  0  0  0  0
 19 20  1  0  0  0  0
 17 21  1  0  0  0  0
 17 22  1  0  0  0  0
 23  1  1  0  0  0  0
 24  3  1  0  0  0  0
 25  5  1  0  0  0  0
 26  6  1  0  0  0  0
 27  7  1  0  0  0  0
 28  8  1  0  0  0  0
 29 12  1  0  0  0  0
 30 15  1  0  0  0  0
 31 15  1  0  0  0  0
 32 16  1  0  0  0  0
 33 16  1  0  0  0  0
 34 18  1  0  0  0  0
 35 20  1  0  0  0  0
 36 20  1  0  0  0  0
 37 20  1  0  0  0  0
 38 21  1  0  0  0  0
 39 21  1  0  0  0  0
 40 21  1  0  0  0  0
 41 22  1  0  0  0  0
 42 22  1  0  0  0  0
 43 22  1  0  0  0  0
M  END
