
  ACD/Labs08221018113D

 33 37  0  0  0  0  0  0  0  0  1 V2000
   18.2732  -11.9061   -0.5643 C   0  0  0  0  0  0  0  0  0  0  0  0
   18.3098  -13.2942   -0.3693 C   0  0  0  0  0  0  0  0  0  0  0  0
   17.1959  -11.3302   -1.2157 C   0  0  0  0  0  0  0  0  0  0  0  0
   17.2630  -14.0850   -0.8237 C   0  0  0  0  0  0  0  0  0  0  0  0
   16.1552  -12.1252   -1.6675 C   0  0  0  0  0  0  0  0  0  0  0  0
   16.1885  -13.4970   -1.4714 C   0  0  0  0  0  0  0  0  0  0  0  0
   20.3537  -11.7226    0.5381 C   0  0  0  0  0  0  0  0  0  0  0  0
   20.3921  -13.0643    0.7329 C   0  0  0  0  0  0  0  0  0  0  0  0
   19.3081  -11.0958   -0.1089 C   0  0  0  0  0  0  0  0  0  0  0  0
   19.3822  -13.8952    0.2818 C   0  0  0  0  0  0  0  0  0  0  0  0
   19.4001  -15.3617    0.4677 C   0  0  0  0  0  0  0  0  0  0  0  0
   18.3210  -16.0920   -0.0062 C   0  0  0  0  0  0  0  0  0  0  0  0
   17.2874  -15.4428   -0.6268 O   0  0  0  0  0  0  0  0  0  0  0  0
   20.4579  -16.0073    1.0875 C   0  0  0  0  0  0  0  0  0  0  0  0
   20.4360  -17.3828    1.2393 C   0  0  0  0  0  0  0  0  0  0  0  0
   19.3557  -18.1144    0.7702 C   0  0  0  0  0  0  0  0  0  0  0  0
   18.2975  -17.4702    0.1469 C   0  0  0  0  0  0  0  0  0  0  0  0
   21.5662  -11.1756    1.1185 C   0  0  0  0  0  0  0  0  0  0  0  0
   22.3333  -12.1781    1.6791 O   0  0  0  0  0  0  0  0  0  0  0  0
   21.6250  -13.3436    1.4565 C   0  0  0  0  0  0  0  0  0  0  0  0
   21.4739  -18.0133    1.8504 O   0  0  0  0  0  0  0  0  0  0  0  0
   19.3397  -19.4656    0.9190 O   0  0  0  0  0  0  0  0  0  0  0  0
   15.1588  -14.2644   -1.9151 O   0  0  0  0  0  0  0  0  0  0  0  0
   21.9664  -14.4408    1.8374 O   0  0  0  0  0  0  0  0  0  0  0  0
   21.8675  -10.0041    1.0967 O   0  0  0  0  0  0  0  0  0  0  0  0
   17.1665  -10.2311   -1.3756 H   0  0  0  0  0  0  0  0  0  0  0  0
   15.2910  -11.6609   -2.1890 H   0  0  0  0  0  0  0  0  0  0  0  0
   19.2999   -9.9946   -0.2557 H   0  0  0  0  0  0  0  0  0  0  0  0
   21.3242  -15.4217    1.4630 H   0  0  0  0  0  0  0  0  0  0  0  0
   17.4324  -18.0572   -0.2292 H   0  0  0  0  0  0  0  0  0  0  0  0
   21.4591  -19.0189    1.9638 H   0  0  0  0  0  0  0  0  0  0  0  0
   18.5546  -20.0033    0.5746 H   0  0  0  0  0  0  0  0  0  0  0  0
   14.3732  -13.8339   -2.3859 H   0  0  0  0  0  0  0  0  0  0  0  0
  3  1  1  0  0  0  0
  4  2  1  0  0  0  0
  5  3  2  0  0  0  0
  6  4  2  0  0  0  0
  6  5  1  0  0  0  0
  9  7  2  0  0  0  0
 10  8  2  0  0  0  0
  1  9  1  0  0  0  0
  2  1  2  0  0  0  0
 11 10  1  0  0  0  0
  2 10  1  0  0  0  0
 13 12  1  0  0  0  0
 13  4  1  0  0  0  0
 15 14  1  0  0  0  0
 11 14  2  0  0  0  0
 16 15  2  0  0  0  0
 12 11  1  0  0  0  0
 17 16  1  0  0  0  0
 17 12  2  0  0  0  0
 18  7  1  0  0  0  0
  8  7  1  0  0  0  0
 19 18  1  0  0  0  0
 20  8  1  0  0  0  0
 20 19  1  0  0  0  0
 15 21  1  0  0  0  0
 16 22  1  0  0  0  0
  6 23  1  0  0  0  0
 20 24  2  0  0  0  0
 18 25  2  0  0  0  0
 26  3  1  0  0  0  0
 27  5  1  0  0  0  0
 28  9  1  0  0  0  0
 29 14  1  0  0  0  0
 30 17  1  0  0  0  0
 31 21  1  0  0  0  0
 32 22  1  0  0  0  0
 33 23  1  0  0  0  0
M  END
