
  ACD/Labs09011020213D

 47 49  0  0  0  0  0  0  0  0  1 V2000
   13.9241  -17.2904   -1.2214 C   0  0  0  0  0  0  0  0  0  0  0  0
   14.2956  -18.3520   -0.1539 C   0  0  0  0  0  0  0  0  0  0  0  0
   12.5652  -16.6444   -0.8671 C   0  0  0  0  0  0  0  0  0  0  0  0
   13.1839  -19.3984   -0.0410 C   0  0  0  0  0  0  0  0  0  0  0  0
   11.5090  -17.7077   -0.6441 C   0  0  0  0  0  0  0  0  0  0  0  0
   11.8990  -19.0780   -0.2694 C   0  0  0  0  0  0  0  0  0  0  0  0
   16.3856  -16.7038   -0.8563 C   0  0  0  0  0  0  0  0  0  0  0  0
   16.6427  -18.1699   -1.1915 C   0  0  0  0  0  0  0  0  0  0  0  0
   15.0510  -16.2416   -1.5234 C   0  0  0  0  0  0  0  0  0  0  0  0
   15.6045  -19.0766   -0.5255 C   0  0  0  0  0  0  0  0  0  0  0  0
   14.6451  -14.8549   -0.9545 C   0  0  0  0  0  0  0  0  0  0  0  0
   15.7293  -13.7793   -1.1463 C   0  0  0  0  0  0  0  0  0  0  0  0
   15.2339  -12.5329   -1.8499 C   0  0  0  0  0  0  0  0  0  0  0  0
   13.9419  -12.1789   -2.1102 C   0  0  0  0  0  0  0  0  0  0  0  0
   16.0226  -11.5275   -2.3502 C   0  0  0  0  0  0  0  0  0  0  0  0
   14.1021  -10.9673   -2.7547 C   0  0  0  0  0  0  0  0  0  0  0  0
   15.2914  -10.6834   -2.8439 O   0  0  0  0  0  0  0  0  0  0  0  0
   15.2393  -16.1322   -3.0447 C   0  0  0  0  0  0  0  0  0  0  0  0
   17.5596  -15.8611   -1.3811 C   0  0  0  0  0  0  0  0  0  0  0  0
   10.3383  -17.4318   -0.7685 O   0  0  0  0  0  0  0  0  0  0  0  0
   13.5197  -20.8281    0.3356 C   0  0  0  0  0  0  0  0  0  0  0  0
   16.3000  -16.5791    0.2481 H   0  0  0  0  0  0  0  0  0  0  0  0
   13.8043  -17.8342   -2.1827 H   0  0  0  0  0  0  0  0  0  0  0  0
   14.4235  -17.8315    0.8193 H   0  0  0  0  0  0  0  0  0  0  0  0
   12.6693  -16.0442    0.0620 H   0  0  0  0  0  0  0  0  0  0  0  0
   12.2381  -15.9853   -1.6996 H   0  0  0  0  0  0  0  0  0  0  0  0
   11.1824  -19.9188   -0.1522 H   0  0  0  0  0  0  0  0  0  0  0  0
   16.5899  -18.3037   -2.2932 H   0  0  0  0  0  0  0  0  0  0  0  0
   17.6557  -18.4509   -0.8320 H   0  0  0  0  0  0  0  0  0  0  0  0
   16.0520  -19.4953    0.4012 H   0  0  0  0  0  0  0  0  0  0  0  0
   15.3637  -19.9034   -1.2274 H   0  0  0  0  0  0  0  0  0  0  0  0
   13.7210  -14.5152   -1.4692 H   0  0  0  0  0  0  0  0  0  0  0  0
   14.4462  -14.9604    0.1334 H   0  0  0  0  0  0  0  0  0  0  0  0
   16.1159  -13.4801   -0.1486 H   0  0  0  0  0  0  0  0  0  0  0  0
   16.5562  -14.2096   -1.7507 H   0  0  0  0  0  0  0  0  0  0  0  0
   13.0091  -12.7297   -1.8634 H   0  0  0  0  0  0  0  0  0  0  0  0
   17.1274  -11.4102   -2.3550 H   0  0  0  0  0  0  0  0  0  0  0  0
   13.3361  -10.2768   -3.1679 H   0  0  0  0  0  0  0  0  0  0  0  0
   14.8682  -17.0596   -3.5311 H   0  0  0  0  0  0  0  0  0  0  0  0
   14.6671  -15.2595   -3.4265 H   0  0  0  0  0  0  0  0  0  0  0  0
   16.3180  -15.9993   -3.2754 H   0  0  0  0  0  0  0  0  0  0  0  0
   17.6843  -16.0385   -2.4708 H   0  0  0  0  0  0  0  0  0  0  0  0
   17.3510  -14.7844   -1.2027 H   0  0  0  0  0  0  0  0  0  0  0  0
   18.4909  -16.1526   -0.8497 H   0  0  0  0  0  0  0  0  0  0  0  0
   13.5593  -21.4529   -0.5823 H   0  0  0  0  0  0  0  0  0  0  0  0
   14.5072  -20.8545    0.8443 H   0  0  0  0  0  0  0  0  0  0  0  0
   12.7385  -21.2237    1.0194 H   0  0  0  0  0  0  0  0  0  0  0  0
  3  1  1  0  0  0  0
  4  2  1  0  0  0  0
  5  3  1  0  0  0  0
  6  4  2  0  0  0  0
  6  5  1  0  0  0  0
  8  7  1  0  0  0  0
  9  7  1  0  0  0  0
 10  8  1  0  0  0  0
  1  9  1  0  0  0  0
  2 10  1  0  0  0  0
  2  1  1  0  0  0  0
  9 11  1  0  0  0  0
 11 12  1  0  0  0  0
 14 13  1  0  0  0  0
 15 13  2  0  0  0  0
 16 14  2  0  0  0  0
 17 15  1  0  0  0  0
 17 16  1  0  0  0  0
 12 13  1  0  0  0  0
  9 18  1  0  0  0  0
  7 19  1  0  0  0  0
  5 20  2  0  0  0  0
  4 21  1  0  0  0  0
 22  7  1  0  0  0  0
 23  1  1  0  0  0  0
 24  2  1  0  0  0  0
 25  3  1  0  0  0  0
 26  3  1  0  0  0  0
 27  6  1  0  0  0  0
 28  8  1  0  0  0  0
 29  8  1  0  0  0  0
 30 10  1  0  0  0  0
 31 10  1  0  0  0  0
 32 11  1  0  0  0  0
 33 11  1  0  0  0  0
 34 12  1  0  0  0  0
 35 12  1  0  0  0  0
 36 14  1  0  0  0  0
 37 15  1  0  0  0  0
 38 16  1  0  0  0  0
 39 18  1  0  0  0  0
 40 18  1  0  0  0  0
 41 18  1  0  0  0  0
 42 19  1  0  0  0  0
 43 19  1  0  0  0  0
 44 19  1  0  0  0  0
 45 21  1  0  0  0  0
 46 21  1  0  0  0  0
 47 21  1  0  0  0  0
M  END
