
  ACD/Labs07111011483D

 51 54  0  0  0  0  0  0  0  0  1 V2000
   20.0968  -13.2814   -0.4143 C   0  0  0  0  0  0  0  0  0  0  0  0
   21.0833  -14.0588    0.5022 C   0  0  0  0  0  0  0  0  0  0  0  0
   20.9196  -12.8055   -1.6418 C   0  0  0  0  0  0  0  0  0  0  0  0
   22.1914  -13.1958    0.8852 C   0  0  0  0  0  0  0  0  0  0  0  0
   22.2029  -12.0016   -1.2908 C   0  0  0  0  0  0  0  0  0  0  0  0
   22.7390  -12.2452    0.1175 C   0  0  0  0  0  0  0  0  0  0  0  0
   19.3277  -15.4276   -1.5755 C   0  0  0  0  0  0  0  0  0  0  0  0
   20.3830  -16.0923   -0.7260 C   0  0  0  0  0  0  0  0  0  0  0  0
   18.8519  -14.0968   -0.8993 C   0  0  0  0  0  0  0  0  0  0  0  0
   21.5778  -15.2898   -0.2768 C   0  0  0  0  0  0  0  0  0  0  0  0
   18.0516  -13.2406   -1.9185 C   0  0  0  0  0  0  0  0  0  0  0  0
   17.0428  -14.0349   -2.7675 C   0  0  0  0  0  0  0  0  0  0  0  0
   16.0205  -13.1224   -3.4533 C   0  0  0  0  0  0  0  0  0  0  0  0
   16.6408  -12.0024   -4.2966 C   0  0  0  0  0  0  0  0  0  0  0  0
   15.1358  -13.9171   -4.4373 C   0  0  0  0  0  0  0  0  0  0  0  0
   15.5531  -11.8800   -5.3221 C   0  0  0  0  0  0  0  0  0  0  0  0
   14.7151  -12.9434   -5.3852 O   0  0  0  0  0  0  0  0  0  0  0  0
   15.4149  -10.9030   -6.0235 O   0  0  0  0  0  0  0  0  0  0  0  0
   22.4983  -13.5256    2.2429 C   0  0  0  0  0  0  0  0  0  0  0  0
   21.5026  -14.3077    2.7754 O   0  0  0  0  0  0  0  0  0  0  0  0
   20.4253  -14.5044    1.8233 C   0  0  0  0  0  0  0  0  0  0  0  0
   23.4896  -13.1685    2.8370 O   0  0  0  0  0  0  0  0  0  0  0  0
   20.2671  -17.2542   -0.4052 O   0  0  0  0  0  0  0  0  0  0  0  0
   17.9500  -14.4275    0.3015 C   0  0  0  0  0  0  0  0  0  0  0  0
   18.1406  -16.3935   -1.7289 C   0  0  0  0  0  0  0  0  0  0  0  0
   19.7514  -15.1879   -2.5763 H   0  0  0  0  0  0  0  0  0  0  0  0
   19.6741  -12.4447    0.1819 H   0  0  0  0  0  0  0  0  0  0  0  0
   21.2209  -13.7022   -2.2245 H   0  0  0  0  0  0  0  0  0  0  0  0
   20.2661  -12.1597   -2.2665 H   0  0  0  0  0  0  0  0  0  0  0  0
   23.0025  -12.2790   -2.0105 H   0  0  0  0  0  0  0  0  0  0  0  0
   21.9786  -10.9176   -1.3852 H   0  0  0  0  0  0  0  0  0  0  0  0
   23.5729  -11.7012    0.6103 H   0  0  0  0  0  0  0  0  0  0  0  0
   22.1587  -14.9684   -1.1676 H   0  0  0  0  0  0  0  0  0  0  0  0
   22.2183  -15.9210    0.3756 H   0  0  0  0  0  0  0  0  0  0  0  0
   17.4906  -12.4623   -1.3583 H   0  0  0  0  0  0  0  0  0  0  0  0
   18.7725  -12.7532   -2.6092 H   0  0  0  0  0  0  0  0  0  0  0  0
   17.5958  -14.6000   -3.5480 H   0  0  0  0  0  0  0  0  0  0  0  0
   16.5000  -14.7463   -2.1091 H   0  0  0  0  0  0  0  0  0  0  0  0
   15.4556  -12.6847   -2.6026 H   0  0  0  0  0  0  0  0  0  0  0  0
   16.7754  -11.0611   -3.7219 H   0  0  0  0  0  0  0  0  0  0  0  0
   17.6088  -12.2996   -4.7537 H   0  0  0  0  0  0  0  0  0  0  0  0
   15.7019  -14.7181   -4.9591 H   0  0  0  0  0  0  0  0  0  0  0  0
   14.2443  -14.3564   -3.9407 H   0  0  0  0  0  0  0  0  0  0  0  0
   19.5520  -13.8732    2.0940 H   0  0  0  0  0  0  0  0  0  0  0  0
   20.1191  -15.5722    1.8034 H   0  0  0  0  0  0  0  0  0  0  0  0
   17.5232  -13.4881    0.7135 H   0  0  0  0  0  0  0  0  0  0  0  0
   17.1254  -15.0954   -0.0281 H   0  0  0  0  0  0  0  0  0  0  0  0
   18.5501  -14.9368    1.0858 H   0  0  0  0  0  0  0  0  0  0  0  0
   17.3860  -16.1803   -0.9417 H   0  0  0  0  0  0  0  0  0  0  0  0
   17.6794  -16.2569   -2.7305 H   0  0  0  0  0  0  0  0  0  0  0  0
   18.4992  -17.4400   -1.6242 H   0  0  0  0  0  0  0  0  0  0  0  0
  3  1  1  0  0  0  0
  4  2  1  0  0  0  0
  5  3  1  0  0  0  0
  6  4  2  0  0  0  0
  6  5  1  0  0  0  0
  8  7  1  0  0  0  0
  9  7  1  0  0  0  0
 10  8  1  0  0  0  0
  1  9  1  0  0  0  0
  2 10  1  0  0  0  0
  2  1  1  0  0  0  0
  9 11  1  0  0  0  0
 11 12  1  0  0  0  0
 14 13  1  0  0  0  0
 15 13  1  0  0  0  0
 16 14  1  0  0  0  0
 17 15  1  0  0  0  0
 17 16  1  0  0  0  0
 12 13  1  0  0  0  0
 16 18  2  0  0  0  0
  4 19  1  0  0  0  0
 19 20  1  0  0  0  0
  2 21  1  0  0  0  0
 21 20  1  0  0  0  0
 19 22  2  0  0  0  0
  8 23  2  0  0  0  0
  9 24  1  0  0  0  0
  7 25  1  0  0  0  0
 26  7  1  0  0  0  0
 27  1  1  0  0  0  0
 28  3  1  0  0  0  0
 29  3  1  0  0  0  0
 30  5  1  0  0  0  0
 31  5  1  0  0  0  0
 32  6  1  0  0  0  0
 33 10  1  0  0  0  0
 34 10  1  0  0  0  0
 35 11  1  0  0  0  0
 36 11  1  0  0  0  0
 37 12  1  0  0  0  0
 38 12  1  0  0  0  0
 39 13  1  0  0  0  0
 40 14  1  0  0  0  0
 41 14  1  0  0  0  0
 42 15  1  0  0  0  0
 43 15  1  0  0  0  0
 44 21  1  0  0  0  0
 45 21  1  0  0  0  0
 46 24  1  0  0  0  0
 47 24  1  0  0  0  0
 48 24  1  0  0  0  0
 49 25  1  0  0  0  0
 50 25  1  0  0  0  0
 51 25  1  0  0  0  0
M  END
