
  ACD/Labs07111011193D

 99100  0  0  0  0  0  0  0  0  1 V2000
    8.7710  -20.5091   -8.8897 C   0  0  0  0  0  0  0  0  0  0  0  0
    8.4340  -21.7606   -8.4865 C   0  0  0  0  0  0  0  0  0  0  0  0
    7.7349  -19.6714   -9.6510 C   0  0  0  0  0  0  0  0  0  0  0  0
    7.0557  -22.3714   -8.7883 C   0  0  0  0  0  0  0  0  0  0  0  0
    6.9035  -20.5851  -10.5575 C   0  0  0  0  0  0  0  0  0  0  0  0
    6.1076  -21.5671   -9.6994 C   0  0  0  0  0  0  0  0  0  0  0  0
    6.8177  -18.9460   -8.6563 C   0  0  0  0  0  0  0  0  0  0  0  0
    8.4186  -18.6274  -10.5389 C   0  0  0  0  0  0  0  0  0  0  0  0
    5.1907  -20.8418   -8.8943 O   0  0  0  0  0  0  0  0  0  0  0  0
    9.4054  -22.6329   -7.7221 C   0  0  0  0  0  0  0  0  0  0  0  0
   11.1228  -20.4666   -7.9374 C   0  0  0  0  0  0  0  0  0  0  0  0
   10.1318  -19.8931   -8.6512 C   0  0  0  0  0  0  0  0  0  0  0  0
   12.4403  -19.7700   -7.7817 C   0  0  0  0  0  0  0  0  0  0  0  0
   13.4492  -20.3289   -7.0761 C   0  0  0  0  0  0  0  0  0  0  0  0
   14.7731  -19.6329   -6.9409 C   0  0  0  0  0  0  0  0  0  0  0  0
   15.7911  -20.1613   -6.2258 C   0  0  0  0  0  0  0  0  0  0  0  0
   17.1200  -19.4569   -6.1177 C   0  0  0  0  0  0  0  0  0  0  0  0
   18.1317  -19.9883   -5.3922 C   0  0  0  0  0  0  0  0  0  0  0  0
   19.4762  -19.3176   -5.2823 C   0  0  0  0  0  0  0  0  0  0  0  0
   20.4663  -19.8550   -4.5363 C   0  0  0  0  0  0  0  0  0  0  0  0
   21.8189  -19.2018   -4.4336 C   0  0  0  0  0  0  0  0  0  0  0  0
   22.8054  -19.7276   -3.6682 C   0  0  0  0  0  0  0  0  0  0  0  0
   24.1592  -19.0718   -3.5886 C   0  0  0  0  0  0  0  0  0  0  0  0
   25.1469  -19.5849   -2.8214 C   0  0  0  0  0  0  0  0  0  0  0  0
   26.5047  -18.9463   -2.7523 C   0  0  0  0  0  0  0  0  0  0  0  0
   27.4858  -19.4403   -1.9634 C   0  0  0  0  0  0  0  0  0  0  0  0
   28.8308  -18.7812   -1.9373 C   0  0  0  0  0  0  0  0  0  0  0  0
   29.8012  -19.1765   -1.0868 C   0  0  0  0  0  0  0  0  0  0  0  0
   31.1246  -18.4947   -1.0994 C   0  0  0  0  0  0  0  0  0  0  0  0
   32.1194  -18.6118    0.0642 C   0  0  0  0  0  0  0  0  0  0  0  0
   33.1908  -17.5213   -0.0436 C   0  0  0  0  0  0  0  0  0  0  0  0
   32.8442  -19.9768    0.0317 C   0  0  0  0  0  0  0  0  0  0  0  0
   34.1319  -19.6832    0.8070 C   0  0  0  0  0  0  0  0  0  0  0  0
   34.4811  -18.2436    0.3946 C   0  0  0  0  0  0  0  0  0  0  0  0
   33.2211  -20.3802   -1.4058 C   0  0  0  0  0  0  0  0  0  0  0  0
   32.0454  -21.1177    0.6791 C   0  0  0  0  0  0  0  0  0  0  0  0
   31.3412  -18.4547    1.3827 C   0  0  0  0  0  0  0  0  0  0  0  0
   35.0630  -17.5588    1.4941 O   0  0  0  0  0  0  0  0  0  0  0  0
   31.4311  -17.8236   -2.0581 O   0  0  0  0  0  0  0  0  0  0  0  0
   27.2346  -20.6665   -1.1036 C   0  0  0  0  0  0  0  0  0  0  0  0
   22.5496  -21.0035   -2.8894 C   0  0  0  0  0  0  0  0  0  0  0  0
   17.3245  -18.1404   -6.8422 C   0  0  0  0  0  0  0  0  0  0  0  0
   12.6433  -18.4164   -8.4403 C   0  0  0  0  0  0  0  0  0  0  0  0
    5.5564  -22.2720  -10.3658 H   0  0  0  0  0  0  0  0  0  0  0  0
   10.9637  -21.4622   -7.4713 H   0  0  0  0  0  0  0  0  0  0  0  0
   10.3309  -18.8974   -9.1025 H   0  0  0  0  0  0  0  0  0  0  0  0
   13.2957  -21.3194   -6.5968 H   0  0  0  0  0  0  0  0  0  0  0  0
   14.9186  -18.6564   -7.4496 H   0  0  0  0  0  0  0  0  0  0  0  0
   15.6475  -21.1374   -5.7154 H   0  0  0  0  0  0  0  0  0  0  0  0
   17.9685  -20.9527   -4.8656 H   0  0  0  0  0  0  0  0  0  0  0  0
   19.6591  -18.3680   -5.8296 H   0  0  0  0  0  0  0  0  0  0  0  0
   20.2802  -20.8041   -3.9889 H   0  0  0  0  0  0  0  0  0  0  0  0
   22.0148  -18.2681   -5.0013 H   0  0  0  0  0  0  0  0  0  0  0  0
   24.3524  -18.1509   -4.1797 H   0  0  0  0  0  0  0  0  0  0  0  0
   24.9527  -20.5049   -2.2290 H   0  0  0  0  0  0  0  0  0  0  0  0
   26.7145  -18.0463   -3.3698 H   0  0  0  0  0  0  0  0  0  0  0  0
   29.0387  -17.9478   -2.6409 H   0  0  0  0  0  0  0  0  0  0  0  0
   29.6119  -20.0084   -0.3758 H   0  0  0  0  0  0  0  0  0  0  0  0
   35.2043  -18.2633   -0.4539 H   0  0  0  0  0  0  0  0  0  0  0  0
    7.2279  -23.3567   -9.2718 H   0  0  0  0  0  0  0  0  0  0  0  0
    6.5387  -22.5205   -7.8163 H   0  0  0  0  0  0  0  0  0  0  0  0
    6.2023  -19.9704  -11.1614 H   0  0  0  0  0  0  0  0  0  0  0  0
    7.5789  -21.1503  -11.2348 H   0  0  0  0  0  0  0  0  0  0  0  0
    6.6909  -17.8886   -8.9732 H   0  0  0  0  0  0  0  0  0  0  0  0
    5.8263  -19.4472   -8.6339 H   0  0  0  0  0  0  0  0  0  0  0  0
    7.2729  -18.9767   -7.6431 H   0  0  0  0  0  0  0  0  0  0  0  0
    7.8669  -17.6654  -10.4707 H   0  0  0  0  0  0  0  0  0  0  0  0
    9.4653  -18.4791  -10.1967 H   0  0  0  0  0  0  0  0  0  0  0  0
    8.4183  -18.9805  -11.5924 H   0  0  0  0  0  0  0  0  0  0  0  0
    4.1966  -21.0094   -8.9832 H   0  0  0  0  0  0  0  0  0  0  0  0
   10.1971  -21.9972   -7.2708 H   0  0  0  0  0  0  0  0  0  0  0  0
    8.8625  -23.1746   -6.9182 H   0  0  0  0  0  0  0  0  0  0  0  0
    9.8699  -23.3657   -8.4163 H   0  0  0  0  0  0  0  0  0  0  0  0
   33.2749  -17.1516   -1.0879 H   0  0  0  0  0  0  0  0  0  0  0  0
   32.9593  -16.6712    0.6332 H   0  0  0  0  0  0  0  0  0  0  0  0
   33.9585  -19.7525    1.9022 H   0  0  0  0  0  0  0  0  0  0  0  0
   34.9392  -20.3880    0.5140 H   0  0  0  0  0  0  0  0  0  0  0  0
   33.1670  -19.4885   -2.0665 H   0  0  0  0  0  0  0  0  0  0  0  0
   34.2550  -20.7870   -1.4168 H   0  0  0  0  0  0  0  0  0  0  0  0
   32.5128  -21.1547   -1.7705 H   0  0  0  0  0  0  0  0  0  0  0  0
   31.0341  -20.7504    0.9564 H   0  0  0  0  0  0  0  0  0  0  0  0
   31.9494  -21.9577   -0.0418 H   0  0  0  0  0  0  0  0  0  0  0  0
   32.5746  -21.4688    1.5909 H   0  0  0  0  0  0  0  0  0  0  0  0
   30.9806  -17.4081    1.4771 H   0  0  0  0  0  0  0  0  0  0  0  0
   30.4723  -19.1472    1.3842 H   0  0  0  0  0  0  0  0  0  0  0  0
   32.0094  -18.6946    2.2375 H   0  0  0  0  0  0  0  0  0  0  0  0
   35.9992  -17.1823    1.4177 H   0  0  0  0  0  0  0  0  0  0  0  0
   26.5096  -20.4131   -0.3007 H   0  0  0  0  0  0  0  0  0  0  0  0
   26.8190  -21.4815   -1.7341 H   0  0  0  0  0  0  0  0  0  0  0  0
   28.1910  -21.0004   -0.6470 H   0  0  0  0  0  0  0  0  0  0  0  0
   21.7495  -20.8251   -2.1395 H   0  0  0  0  0  0  0  0  0  0  0  0
   22.2297  -21.8058   -3.5884 H   0  0  0  0  0  0  0  0  0  0  0  0
   23.4817  -21.3129   -2.3698 H   0  0  0  0  0  0  0  0  0  0  0  0
   16.6144  -17.3845   -6.4436 H   0  0  0  0  0  0  0  0  0  0  0  0
   18.3667  -17.7890   -6.6839 H   0  0  0  0  0  0  0  0  0  0  0  0
   17.1414  -18.2837   -7.9287 H   0  0  0  0  0  0  0  0  0  0  0  0
   11.8659  -17.7092   -8.0797 H   0  0  0  0  0  0  0  0  0  0  0  0
   13.6498  -18.0250   -8.1789 H   0  0  0  0  0  0  0  0  0  0  0  0
   12.5616  -18.5256   -9.5430 H   0  0  0  0  0  0  0  0  0  0  0  0
  3  1  1  0  0  0  0
  4  2  1  0  0  0  0
  5  3  1  0  0  0  0
  6  4  1  0  0  0  0
  6  5  1  0  0  0  0
  3  7  1  0  0  0  0
  3  8  1  0  0  0  0
  6  9  1  0  0  0  0
 12 11  2  0  0  0  0
  1 12  1  0  0  0  0
  2 10  1  0  0  0  0
  2  1  2  0  0  0  0
 11 13  1  0  0  0  0
 13 14  2  0  0  0  0
 14 15  1  0  0  0  0
 15 16  2  0  0  0  0
 16 17  1  0  0  0  0
 17 18  2  0  0  0  0
 18 19  1  0  0  0  0
 19 20  2  0  0  0  0
 20 21  1  0  0  0  0
 21 22  2  0  0  0  0
 22 23  1  0  0  0  0
 23 24  2  0  0  0  0
 24 25  1  0  0  0  0
 25 26  2  0  0  0  0
 26 27  1  0  0  0  0
 27 28  2  0  0  0  0
 28 29  1  0  0  0  0
 29 30  1  0  0  0  0
 30 31  1  0  0  0  0
 30 32  1  0  0  0  0
 32 33  1  0  0  0  0
 31 34  1  0  0  0  0
 34 33  1  0  0  0  0
 32 35  1  0  0  0  0
 32 36  1  0  0  0  0
 30 37  1  0  0  0  0
 34 38  1  0  0  0  0
 29 39  2  0  0  0  0
 26 40  1  0  0  0  0
 22 41  1  0  0  0  0
 17 42  1  0  0  0  0
 13 43  1  0  0  0  0
 44  6  1  0  0  0  0
 45 11  1  0  0  0  0
 46 12  1  0  0  0  0
 47 14  1  0  0  0  0
 48 15  1  0  0  0  0
 49 16  1  0  0  0  0
 50 18  1  0  0  0  0
 51 19  1  0  0  0  0
 52 20  1  0  0  0  0
 53 21  1  0  0  0  0
 54 23  1  0  0  0  0
 55 24  1  0  0  0  0
 56 25  1  0  0  0  0
 57 27  1  0  0  0  0
 58 28  1  0  0  0  0
 59 34  1  0  0  0  0
 60  4  1  0  0  0  0
 61  4  1  0  0  0  0
 62  5  1  0  0  0  0
 63  5  1  0  0  0  0
 64  7  1  0  0  0  0
 65  7  1  0  0  0  0
 66  7  1  0  0  0  0
 67  8  1  0  0  0  0
 68  8  1  0  0  0  0
 69  8  1  0  0  0  0
 70  9  1  0  0  0  0
 71 10  1  0  0  0  0
 72 10  1  0  0  0  0
 73 10  1  0  0  0  0
 74 31  1  0  0  0  0
 75 31  1  0  0  0  0
 76 33  1  0  0  0  0
 77 33  1  0  0  0  0
 78 35  1  0  0  0  0
 79 35  1  0  0  0  0
 80 35  1  0  0  0  0
 81 36  1  0  0  0  0
 82 36  1  0  0  0  0
 83 36  1  0  0  0  0
 84 37  1  0  0  0  0
 85 37  1  0  0  0  0
 86 37  1  0  0  0  0
 87 38  1  0  0  0  0
 88 40  1  0  0  0  0
 89 40  1  0  0  0  0
 90 40  1  0  0  0  0
 91 41  1  0  0  0  0
 92 41  1  0  0  0  0
 93 41  1  0  0  0  0
 94 42  1  0  0  0  0
 95 42  1  0  0  0  0
 96 42  1  0  0  0  0
 97 43  1  0  0  0  0
 98 43  1  0  0  0  0
 99 43  1  0  0  0  0
M  END
