
  ACD/Labs07111011213D

 22 22  0  0  0  0  0  0  0  0  1 V2000
   13.8803  -19.7925   -2.4335 C   0  0  0  0  0  0  0  0  0  0  0  0
   13.4787  -18.6904   -3.1721 C   0  0  0  0  0  0  0  0  0  0  0  0
   13.1181  -20.2183   -1.3564 C   0  0  0  0  0  0  0  0  0  0  0  0
   12.3174  -18.0135   -2.8345 C   0  0  0  0  0  0  0  0  0  0  0  0
   11.9563  -19.5419   -1.0190 C   0  0  0  0  0  0  0  0  0  0  0  0
   11.5559  -18.4398   -1.7580 C   0  0  0  0  0  0  0  0  0  0  0  0
   15.1127  -20.5109   -2.7980 C   0  0  0  0  0  0  0  0  0  0  0  0
   16.2512  -20.2929   -2.1242 C   0  0  0  0  0  0  0  0  0  0  0  0
   17.4793  -21.0180   -2.5000 C   0  0  0  0  0  0  0  0  0  0  0  0
   18.7094  -20.5449   -2.1469 O   0  0  0  0  0  0  0  0  0  0  0  0
   17.3956  -22.0455   -3.1336 O   0  0  0  0  0  0  0  0  0  0  0  0
   18.8985  -19.2381   -1.6181 C   0  0  0  0  0  0  0  0  0  0  0  0
   15.0993  -21.2368   -3.6385 H   0  0  0  0  0  0  0  0  0  0  0  0
   16.2712  -19.5661   -1.2842 H   0  0  0  0  0  0  0  0  0  0  0  0
   14.0883  -18.3492   -4.0359 H   0  0  0  0  0  0  0  0  0  0  0  0
   13.4384  -21.1017   -0.7636 H   0  0  0  0  0  0  0  0  0  0  0  0
   11.9972  -17.1296   -3.4265 H   0  0  0  0  0  0  0  0  0  0  0  0
   11.3457  -19.8833   -0.1558 H   0  0  0  0  0  0  0  0  0  0  0  0
   10.6244  -17.8981   -1.4876 H   0  0  0  0  0  0  0  0  0  0  0  0
   18.5364  -19.2079   -0.5681 H   0  0  0  0  0  0  0  0  0  0  0  0
   19.9791  -18.9811   -1.6446 H   0  0  0  0  0  0  0  0  0  0  0  0
   18.3270  -18.5060   -2.2280 H   0  0  0  0  0  0  0  0  0  0  0  0
  2  1  2  0  0  0  0
  3  1  1  0  0  0  0
  4  2  1  0  0  0  0
  5  3  2  0  0  0  0
  6  4  2  0  0  0  0
  6  5  1  0  0  0  0
  1  7  1  0  0  0  0
  7  8  2  0  0  0  0
  8  9  1  0  0  0  0
  9 10  1  0  0  0  0
  9 11  2  0  0  0  0
 10 12  1  0  0  0  0
 13  7  1  0  0  0  0
 14  8  1  0  0  0  0
 15  2  1  0  0  0  0
 16  3  1  0  0  0  0
 17  4  1  0  0  0  0
 18  5  1  0  0  0  0
 19  6  1  0  0  0  0
 20 12  1  0  0  0  0
 21 12  1  0  0  0  0
 22 12  1  0  0  0  0
M  END
