
  ACD/Labs08281017233D

100101  0  0  0  0  0  0  0  0  1 V2000
   36.3286  -19.5288    4.6234 C   0  0  0  0  0  0  0  0  0  0  0  0
   36.0776  -20.8858    4.5075 C   0  0  0  0  0  0  0  0  0  0  0  0
   37.5652  -19.0854    5.0689 C   0  0  0  0  0  0  0  0  0  0  0  0
   37.0551  -21.8085    4.8427 C   0  0  0  0  0  0  0  0  0  0  0  0
   38.5472  -20.0075    5.3992 C   0  0  0  0  0  0  0  0  0  0  0  0
   38.2925  -21.3649    5.2873 C   0  0  0  0  0  0  0  0  0  0  0  0
   34.0217  -18.9847    4.1455 C   0  0  0  0  0  0  0  0  0  0  0  0
   33.6798  -20.2794    4.0081 C   0  0  0  0  0  0  0  0  0  0  0  0
   35.3428  -18.6317    4.3047 O   0  0  0  0  0  0  0  0  0  0  0  0
   34.7469  -21.2966    4.0274 C   0  0  0  0  0  0  0  0  0  0  0  0
   39.7622  -19.5814    5.8401 O   0  0  0  0  0  0  0  0  0  0  0  0
   36.8093  -23.1405    4.7402 O   0  0  0  0  0  0  0  0  0  0  0  0
   34.5371  -22.4258    3.6429 O   0  0  0  0  0  0  0  0  0  0  0  0
   32.9438  -17.9103    4.1496 C   0  0  0  0  0  0  0  0  0  0  0  0
   32.2568  -17.7261    2.7836 C   0  0  0  0  0  0  0  0  0  0  0  0
   30.7341  -17.8352    2.9753 C   0  0  0  0  0  0  0  0  0  0  0  0
   29.9942  -16.9327    1.9748 C   0  0  0  0  0  0  0  0  0  0  0  0
   28.4719  -17.1404    2.1013 C   0  0  0  0  0  0  0  0  0  0  0  0
   27.6820  -16.0568    1.3411 C   0  0  0  0  0  0  0  0  0  0  0  0
   26.1761  -16.3937    1.2955 C   0  0  0  0  0  0  0  0  0  0  0  0
   25.3827  -15.2302    0.6668 C   0  0  0  0  0  0  0  0  0  0  0  0
   23.9024  -15.6038    0.4505 C   0  0  0  0  0  0  0  0  0  0  0  0
   23.0996  -14.3864   -0.0539 C   0  0  0  0  0  0  0  0  0  0  0  0
   21.6502  -14.7902   -0.3896 C   0  0  0  0  0  0  0  0  0  0  0  0
   20.8291  -13.5532   -0.7978 C   0  0  0  0  0  0  0  0  0  0  0  0
   19.4026  -13.9465   -1.2238 C   0  0  0  0  0  0  0  0  0  0  0  0
   18.5709  -12.6884   -1.5399 C   0  0  0  0  0  0  0  0  0  0  0  0
   17.1599  -13.0761   -2.0255 C   0  0  0  0  0  0  0  0  0  0  0  0
   16.3002  -11.8272   -2.3082 C   0  0  0  0  0  0  0  0  0  0  0  0
   14.8938  -12.2318   -2.7969 C   0  0  0  0  0  0  0  0  0  0  0  0
   14.0240  -10.9871   -3.0670 C   0  0  0  0  0  0  0  0  0  0  0  0
   12.6294  -11.3860   -3.5878 C   0  0  0  0  0  0  0  0  0  0  0  0
   11.7663  -10.1355   -3.8399 C   0  0  0  0  0  0  0  0  0  0  0  0
   10.3743  -10.5304   -4.3630 C   0  0  0  0  0  0  0  0  0  0  0  0
    9.5240   -9.2767   -4.6245 C   0  0  0  0  0  0  0  0  0  0  0  0
    8.1285   -9.6760   -5.1257 C   0  0  0  0  0  0  0  0  0  0  0  0
    7.2851   -8.4207   -5.3853 C   0  0  0  0  0  0  0  0  0  0  0  0
    5.8926   -8.8215   -5.8862 C   0  0  0  0  0  0  0  0  0  0  0  0
    5.0555   -7.5668   -6.1533 C   0  0  0  0  0  0  0  0  0  0  0  0
    3.6663   -7.9732   -6.6509 C   0  0  0  0  0  0  0  0  0  0  0  0
   37.7682  -17.9970    5.1606 H   0  0  0  0  0  0  0  0  0  0  0  0
   39.0822  -22.0992    5.5547 H   0  0  0  0  0  0  0  0  0  0  0  0
   32.5961  -20.4927    3.8875 H   0  0  0  0  0  0  0  0  0  0  0  0
   40.4764  -20.2552    6.0851 H   0  0  0  0  0  0  0  0  0  0  0  0
   37.5283  -23.8082    4.9879 H   0  0  0  0  0  0  0  0  0  0  0  0
   32.1751  -18.1930    4.9002 H   0  0  0  0  0  0  0  0  0  0  0  0
   33.4143  -16.9481    4.4449 H   0  0  0  0  0  0  0  0  0  0  0  0
   32.5099  -16.7265    2.3700 H   0  0  0  0  0  0  0  0  0  0  0  0
   32.6019  -18.5157    2.0824 H   0  0  0  0  0  0  0  0  0  0  0  0
   30.4208  -18.8891    2.8157 H   0  0  0  0  0  0  0  0  0  0  0  0
   30.4732  -17.5233    4.0092 H   0  0  0  0  0  0  0  0  0  0  0  0
   30.2403  -15.8705    2.1880 H   0  0  0  0  0  0  0  0  0  0  0  0
   30.3166  -17.1882    0.9428 H   0  0  0  0  0  0  0  0  0  0  0  0
   28.2088  -18.1361    1.6846 H   0  0  0  0  0  0  0  0  0  0  0  0
   28.1917  -17.1023    3.1758 H   0  0  0  0  0  0  0  0  0  0  0  0
   27.8203  -15.0812    1.8543 H   0  0  0  0  0  0  0  0  0  0  0  0
   28.0701  -15.9878    0.3024 H   0  0  0  0  0  0  0  0  0  0  0  0
   26.0243  -17.3106    0.6867 H   0  0  0  0  0  0  0  0  0  0  0  0
   25.8089  -16.5700    2.3292 H   0  0  0  0  0  0  0  0  0  0  0  0
   25.4372  -14.3502    1.3427 H   0  0  0  0  0  0  0  0  0  0  0  0
   25.8365  -14.9732   -0.3141 H   0  0  0  0  0  0  0  0  0  0  0  0
   23.8388  -16.4194   -0.3012 H   0  0  0  0  0  0  0  0  0  0  0  0
   23.4703  -15.9521    1.4130 H   0  0  0  0  0  0  0  0  0  0  0  0
   23.0864  -13.6053    0.7360 H   0  0  0  0  0  0  0  0  0  0  0  0
   23.5857  -13.9819   -0.9674 H   0  0  0  0  0  0  0  0  0  0  0  0
   21.6576  -15.5173   -1.2295 H   0  0  0  0  0  0  0  0  0  0  0  0
   21.1845  -15.2595    0.5033 H   0  0  0  0  0  0  0  0  0  0  0  0
   20.7700  -12.8567    0.0657 H   0  0  0  0  0  0  0  0  0  0  0  0
   21.3345  -13.0476   -1.6483 H   0  0  0  0  0  0  0  0  0  0  0  0
   19.4551  -14.5880   -2.1293 H   0  0  0  0  0  0  0  0  0  0  0  0
   18.9164  -14.5092   -0.3983 H   0  0  0  0  0  0  0  0  0  0  0  0
   18.4834  -12.0692   -0.6216 H   0  0  0  0  0  0  0  0  0  0  0  0
   19.0822  -12.1036   -2.3342 H   0  0  0  0  0  0  0  0  0  0  0  0
   17.2501  -13.6720   -2.9588 H   0  0  0  0  0  0  0  0  0  0  0  0
   16.6633  -13.6873   -1.2418 H   0  0  0  0  0  0  0  0  0  0  0  0
   16.2046  -11.2318   -1.3750 H   0  0  0  0  0  0  0  0  0  0  0  0
   16.7955  -11.2134   -3.0906 H   0  0  0  0  0  0  0  0  0  0  0  0
   14.9900  -12.8182   -3.7356 H   0  0  0  0  0  0  0  0  0  0  0  0
   14.4040  -12.8552   -2.0187 H   0  0  0  0  0  0  0  0  0  0  0  0
   13.9077  -10.4139   -2.1224 H   0  0  0  0  0  0  0  0  0  0  0  0
   14.5264  -10.3514   -3.8271 H   0  0  0  0  0  0  0  0  0  0  0  0
   12.7421  -11.9490   -4.5389 H   0  0  0  0  0  0  0  0  0  0  0  0
   12.1280  -12.0291   -2.8333 H   0  0  0  0  0  0  0  0  0  0  0  0
   11.6516   -9.5736   -2.8883 H   0  0  0  0  0  0  0  0  0  0  0  0
   12.2687   -9.4912   -4.5927 H   0  0  0  0  0  0  0  0  0  0  0  0
   10.4871  -11.0997   -5.3103 H   0  0  0  0  0  0  0  0  0  0  0  0
    9.8657  -11.1659   -3.6067 H   0  0  0  0  0  0  0  0  0  0  0  0
    9.4228   -8.6986   -3.6812 H   0  0  0  0  0  0  0  0  0  0  0  0
   10.0232   -8.6484   -5.3928 H   0  0  0  0  0  0  0  0  0  0  0  0
    8.2277  -10.2537   -6.0694 H   0  0  0  0  0  0  0  0  0  0  0  0
    7.6271  -10.3032   -4.3578 H   0  0  0  0  0  0  0  0  0  0  0  0
    7.1844   -7.8428   -4.4417 H   0  0  0  0  0  0  0  0  0  0  0  0
    7.7857   -7.7928   -6.1531 H   0  0  0  0  0  0  0  0  0  0  0  0
    5.9926   -9.4046   -6.8266 H   0  0  0  0  0  0  0  0  0  0  0  0
    5.3884   -9.4436   -5.1160 H   0  0  0  0  0  0  0  0  0  0  0  0
    4.9549   -6.9823   -5.2138 H   0  0  0  0  0  0  0  0  0  0  0  0
    5.5570   -6.9448   -6.9252 H   0  0  0  0  0  0  0  0  0  0  0  0
    2.9732   -8.0558   -5.7865 H   0  0  0  0  0  0  0  0  0  0  0  0
    3.2868   -7.2043   -7.3576 H   0  0  0  0  0  0  0  0  0  0  0  0
    3.7311   -8.9543   -7.1686 H   0  0  0  0  0  0  0  0  0  0  0  0
  3  1  1  0  0  0  0
  4  2  1  0  0  0  0
  5  3  2  0  0  0  0
  6  4  2  0  0  0  0
  6  5  1  0  0  0  0
  8  7  2  0  0  0  0
  9  7  1  0  0  0  0
 10  8  1  0  0  0  0
  1  9  1  0  0  0  0
  2 10  1  0  0  0  0
  2  1  2  0  0  0  0
  5 11  1  0  0  0  0
  4 12  1  0  0  0  0
 10 13  2  0  0  0  0
 14  7  1  0  0  0  0
 15 14  1  0  0  0  0
 16 15  1  0  0  0  0
 17 16  1  0  0  0  0
 18 17  1  0  0  0  0
 19 18  1  0  0  0  0
 20 19  1  0  0  0  0
 21 20  1  0  0  0  0
 22 21  1  0  0  0  0
 23 22  1  0  0  0  0
 24 23  1  0  0  0  0
 25 24  1  0  0  0  0
 26 25  1  0  0  0  0
 27 26  1  0  0  0  0
 28 27  1  0  0  0  0
 29 28  1  0  0  0  0
 30 29  1  0  0  0  0
 31 30  1  0  0  0  0
 32 31  1  0  0  0  0
 33 32  1  0  0  0  0
 34 33  1  0  0  0  0
 35 34  1  0  0  0  0
 36 35  1  0  0  0  0
 37 36  1  0  0  0  0
 38 37  1  0  0  0  0
 39 38  1  0  0  0  0
 40 39  1  0  0  0  0
 41  3  1  0  0  0  0
 42  6  1  0  0  0  0
 43  8  1  0  0  0  0
 44 11  1  0  0  0  0
 45 12  1  0  0  0  0
 46 14  1  0  0  0  0
 47 14  1  0  0  0  0
 48 15  1  0  0  0  0
 49 15  1  0  0  0  0
 50 16  1  0  0  0  0
 51 16  1  0  0  0  0
 52 17  1  0  0  0  0
 53 17  1  0  0  0  0
 54 18  1  0  0  0  0
 55 18  1  0  0  0  0
 56 19  1  0  0  0  0
 57 19  1  0  0  0  0
 58 20  1  0  0  0  0
 59 20  1  0  0  0  0
 60 21  1  0  0  0  0
 61 21  1  0  0  0  0
 62 22  1  0  0  0  0
 63 22  1  0  0  0  0
 64 23  1  0  0  0  0
 65 23  1  0  0  0  0
 66 24  1  0  0  0  0
 67 24  1  0  0  0  0
 68 25  1  0  0  0  0
 69 25  1  0  0  0  0
 70 26  1  0  0  0  0
 71 26  1  0  0  0  0
 72 27  1  0  0  0  0
 73 27  1  0  0  0  0
 74 28  1  0  0  0  0
 75 28  1  0  0  0  0
 76 29  1  0  0  0  0
 77 29  1  0  0  0  0
 78 30  1  0  0  0  0
 79 30  1  0  0  0  0
 80 31  1  0  0  0  0
 81 31  1  0  0  0  0
 82 32  1  0  0  0  0
 83 32  1  0  0  0  0
 84 33  1  0  0  0  0
 85 33  1  0  0  0  0
 86 34  1  0  0  0  0
 87 34  1  0  0  0  0
 88 35  1  0  0  0  0
 89 35  1  0  0  0  0
 90 36  1  0  0  0  0
 91 36  1  0  0  0  0
 92 37  1  0  0  0  0
 93 37  1  0  0  0  0
 94 38  1  0  0  0  0
 95 38  1  0  0  0  0
 96 39  1  0  0  0  0
 97 39  1  0  0  0  0
 98 40  1  0  0  0  0
 99 40  1  0  0  0  0
100 40  1  0  0  0  0
M  END
