
  ACD/Labs08311000263D

 51 54  0  0  0  0  0  0  0  0  1 V2000
   17.4889  -13.4976   -2.5719 C   0  0  0  0  0  0  0  0  0  0  0  0
   18.1582  -14.3665   -1.4624 C   0  0  0  0  0  0  0  0  0  0  0  0
   15.9821  -13.7348   -2.5794 C   0  0  0  0  0  0  0  0  0  0  0  0
   17.2833  -14.6858   -0.2291 C   0  0  0  0  0  0  0  0  0  0  0  0
   15.3737  -14.8314   -1.8059 C   0  0  0  0  0  0  0  0  0  0  0  0
   15.9780  -15.2939   -0.6997 C   0  0  0  0  0  0  0  0  0  0  0  0
   19.2325  -11.6275   -1.9628 C   0  0  0  0  0  0  0  0  0  0  0  0
   19.6888  -12.4757   -0.7700 C   0  0  0  0  0  0  0  0  0  0  0  0
   17.7576  -11.9843   -2.3026 C   0  0  0  0  0  0  0  0  0  0  0  0
   19.6060  -13.9617   -1.1288 C   0  0  0  0  0  0  0  0  0  0  0  0
   19.3513   -9.7318   -3.0951 C   0  0  0  0  0  0  0  0  0  0  0  0
   19.3342  -10.1382   -1.6237 C   0  0  0  0  0  0  0  0  0  0  0  0
   17.9105   -9.7240   -3.6358 C   0  0  0  0  0  0  0  0  0  0  0  0
   17.3067  -11.1572   -3.5532 C   0  0  0  0  0  0  0  0  0  0  0  0
   15.2694  -12.9976   -3.2226 O   0  0  0  0  0  0  0  0  0  0  0  0
   14.1942  -15.3757   -2.2108 O   0  0  0  0  0  0  0  0  0  0  0  0
   17.9965  -15.7083    0.6642 C   0  0  0  0  0  0  0  0  0  0  0  0
   16.9918  -13.4150    0.5799 C   0  0  0  0  0  0  0  0  0  0  0  0
   18.0791  -13.8959   -3.9336 C   0  0  0  0  0  0  0  0  0  0  0  0
   20.1189  -11.8897   -3.1628 C   0  0  0  0  0  0  0  0  0  0  0  0
   20.1858  -10.7440   -3.8492 C   0  0  0  0  0  0  0  0  0  0  0  0
   19.9549   -8.3336   -3.2578 C   0  0  0  0  0  0  0  0  0  0  0  0
   20.0672   -8.0223   -4.6383 O   0  0  0  0  0  0  0  0  0  0  0  0
   18.2589  -15.3643   -1.9405 H   0  0  0  0  0  0  0  0  0  0  0  0
   15.4328  -16.1263   -0.2056 H   0  0  0  0  0  0  0  0  0  0  0  0
   20.7381  -12.2170   -0.5128 H   0  0  0  0  0  0  0  0  0  0  0  0
   19.0317  -12.2704    0.1020 H   0  0  0  0  0  0  0  0  0  0  0  0
   17.1745  -11.7302   -1.3917 H   0  0  0  0  0  0  0  0  0  0  0  0
   19.9643  -14.5624   -0.2656 H   0  0  0  0  0  0  0  0  0  0  0  0
   20.2530  -14.1572   -2.0106 H   0  0  0  0  0  0  0  0  0  0  0  0
   18.4547   -9.7489   -1.0677 H   0  0  0  0  0  0  0  0  0  0  0  0
   20.2652   -9.8698   -1.0800 H   0  0  0  0  0  0  0  0  0  0  0  0
   17.2972   -9.0254   -3.0273 H   0  0  0  0  0  0  0  0  0  0  0  0
   17.9204   -9.3839   -4.6934 H   0  0  0  0  0  0  0  0  0  0  0  0
   17.6114  -11.7120   -4.4662 H   0  0  0  0  0  0  0  0  0  0  0  0
   16.1999  -11.0634   -3.5283 H   0  0  0  0  0  0  0  0  0  0  0  0
   13.7746  -16.1272   -1.6786 H   0  0  0  0  0  0  0  0  0  0  0  0
   18.4692  -16.4881    0.0294 H   0  0  0  0  0  0  0  0  0  0  0  0
   18.7785  -15.1944    1.2633 H   0  0  0  0  0  0  0  0  0  0  0  0
   17.2582  -16.1829    1.3455 H   0  0  0  0  0  0  0  0  0  0  0  0
   17.3626  -12.5284    0.0224 H   0  0  0  0  0  0  0  0  0  0  0  0
   15.8961  -13.3208    0.7387 H   0  0  0  0  0  0  0  0  0  0  0  0
   17.5061  -13.4761    1.5629 H   0  0  0  0  0  0  0  0  0  0  0  0
   18.1238  -15.0036   -4.0077 H   0  0  0  0  0  0  0  0  0  0  0  0
   17.4361  -13.4960   -4.7467 H   0  0  0  0  0  0  0  0  0  0  0  0
   19.1037  -13.4767   -4.0296 H   0  0  0  0  0  0  0  0  0  0  0  0
   20.6520  -12.8055   -3.4969 H   0  0  0  0  0  0  0  0  0  0  0  0
   20.7733  -10.6570   -4.7881 H   0  0  0  0  0  0  0  0  0  0  0  0
   19.3074   -7.5638   -2.7860 H   0  0  0  0  0  0  0  0  0  0  0  0
   20.9720   -8.2856   -2.8134 H   0  0  0  0  0  0  0  0  0  0  0  0
   20.9727   -7.8096   -5.0370 H   0  0  0  0  0  0  0  0  0  0  0  0
  3  1  1  0  0  0  0
  4  2  1  0  0  0  0
  5  3  1  0  0  0  0
  6  4  1  0  0  0  0
  6  5  2  0  0  0  0
  8  7  1  0  0  0  0
 10  8  1  0  0  0  0
  1  9  1  0  0  0  0
  2 10  1  0  0  0  0
  2  1  1  0  0  0  0
 12 11  1  0  0  0  0
 13 11  1  0  0  0  0
  7 12  1  0  0  0  0
 14 13  1  0  0  0  0
  9  7  1  0  0  0  0
  9 14  1  0  0  0  0
  3 15  2  0  0  0  0
  5 16  1  0  0  0  0
  4 17  1  0  0  0  0
  4 18  1  0  0  0  0
  1 19  1  0  0  0  0
  7 20  1  0  0  0  0
 11 21  1  0  0  0  0
 21 20  2  0  0  0  0
 11 22  1  0  0  0  0
 22 23  1  0  0  0  0
 24  2  1  0  0  0  0
 25  6  1  0  0  0  0
 26  8  1  0  0  0  0
 27  8  1  0  0  0  0
 28  9  1  0  0  0  0
 29 10  1  0  0  0  0
 30 10  1  0  0  0  0
 31 12  1  0  0  0  0
 32 12  1  0  0  0  0
 33 13  1  0  0  0  0
 34 13  1  0  0  0  0
 35 14  1  0  0  0  0
 36 14  1  0  0  0  0
 37 16  1  0  0  0  0
 38 17  1  0  0  0  0
 39 17  1  0  0  0  0
 40 17  1  0  0  0  0
 41 18  1  0  0  0  0
 42 18  1  0  0  0  0
 43 18  1  0  0  0  0
 44 19  1  0  0  0  0
 45 19  1  0  0  0  0
 46 19  1  0  0  0  0
 47 20  1  0  0  0  0
 48 21  1  0  0  0  0
 49 22  1  0  0  0  0
 50 22  1  0  0  0  0
 51 23  1  0  0  0  0
M  END
