
  ACD/Labs09021000223D

 51 53  0  0  0  0  0  0  0  0  1 V2000
   15.8303  -11.3640   -1.5819 C   0  0  0  0  0  0  0  0  0  0  0  0
   14.3539  -11.7420   -1.3097 C   0  0  0  0  0  0  0  0  0  0  0  0
   15.9115   -9.9115   -2.0519 C   0  0  0  0  0  0  0  0  0  0  0  0
   13.7312  -10.7316   -0.3436 C   0  0  0  0  0  0  0  0  0  0  0  0
   15.5395   -9.0392   -0.8476 C   0  0  0  0  0  0  0  0  0  0  0  0
   14.2660   -9.5094   -0.1522 C   0  0  0  0  0  0  0  0  0  0  0  0
   16.4858  -13.7978   -1.7924 C   0  0  0  0  0  0  0  0  0  0  0  0
   15.0035  -14.1668   -1.6184 C   0  0  0  0  0  0  0  0  0  0  0  0
   16.6103  -12.3967   -2.4431 C   0  0  0  0  0  0  0  0  0  0  0  0
   14.3073  -13.1529   -0.6952 C   0  0  0  0  0  0  0  0  0  0  0  0
   18.1030  -11.9872   -2.5121 C   0  0  0  0  0  0  0  0  0  0  0  0
   18.3457  -10.8956   -3.5677 C   0  0  0  0  0  0  0  0  0  0  0  0
   19.5075  -10.0101   -3.1917 C   0  0  0  0  0  0  0  0  0  0  0  0
   20.7589   -8.4797   -2.4013 C   0  0  0  0  0  0  0  0  0  0  0  0
   21.4522   -9.2384   -3.0684 O   0  0  0  0  0  0  0  0  0  0  0  0
   19.4430   -8.8939   -2.4107 C   0  0  0  0  0  0  0  0  0  0  0  0
   20.8198  -10.1566   -3.5675 C   0  0  0  0  0  0  0  0  0  0  0  0
   16.0255  -12.4361   -3.8716 C   0  0  0  0  0  0  0  0  0  0  0  0
   17.1604  -14.8419   -2.6886 C   0  0  0  0  0  0  0  0  0  0  0  0
   13.5570  -11.7257   -2.6230 C   0  0  0  0  0  0  0  0  0  0  0  0
   12.4967  -11.0826    0.3777 C   0  0  0  0  0  0  0  0  0  0  0  0
   12.0309  -12.1947    0.2738 O   0  0  0  0  0  0  0  0  0  0  0  0
   11.8767  -10.1575    1.1594 O   0  0  0  0  0  0  0  0  0  0  0  0
   16.9815  -13.7791   -0.7941 H   0  0  0  0  0  0  0  0  0  0  0  0
   16.3881  -11.4017   -0.6219 H   0  0  0  0  0  0  0  0  0  0  0  0
   16.9428   -9.6770   -2.3919 H   0  0  0  0  0  0  0  0  0  0  0  0
   15.1978   -9.7392   -2.8858 H   0  0  0  0  0  0  0  0  0  0  0  0
   16.3737   -9.0676   -0.1143 H   0  0  0  0  0  0  0  0  0  0  0  0
   15.3872   -7.9952   -1.1958 H   0  0  0  0  0  0  0  0  0  0  0  0
   13.6703   -8.9028    0.5630 H   0  0  0  0  0  0  0  0  0  0  0  0
   14.5053  -14.1609   -2.6114 H   0  0  0  0  0  0  0  0  0  0  0  0
   14.9283  -15.1813   -1.1718 H   0  0  0  0  0  0  0  0  0  0  0  0
   14.8236  -13.1407    0.2885 H   0  0  0  0  0  0  0  0  0  0  0  0
   13.2477  -13.4556   -0.5542 H   0  0  0  0  0  0  0  0  0  0  0  0
   18.4194  -11.6006   -1.5198 H   0  0  0  0  0  0  0  0  0  0  0  0
   18.7121  -12.8786   -2.7742 H   0  0  0  0  0  0  0  0  0  0  0  0
   18.5674  -11.3726   -4.5463 H   0  0  0  0  0  0  0  0  0  0  0  0
   17.4361  -10.2645   -3.6604 H   0  0  0  0  0  0  0  0  0  0  0  0
   21.2230   -7.6052   -1.8970 H   0  0  0  0  0  0  0  0  0  0  0  0
   18.5565   -8.4431   -1.9154 H   0  0  0  0  0  0  0  0  0  0  0  0
   21.3113  -10.9264   -4.2002 H   0  0  0  0  0  0  0  0  0  0  0  0
   15.6577  -11.4250   -4.1487 H   0  0  0  0  0  0  0  0  0  0  0  0
   16.8157  -12.7513   -4.5862 H   0  0  0  0  0  0  0  0  0  0  0  0
   15.1826  -13.1592   -3.9065 H   0  0  0  0  0  0  0  0  0  0  0  0
   16.8196  -14.7051   -3.7373 H   0  0  0  0  0  0  0  0  0  0  0  0
   18.2632  -14.7157   -2.6383 H   0  0  0  0  0  0  0  0  0  0  0  0
   16.8865  -15.8609   -2.3403 H   0  0  0  0  0  0  0  0  0  0  0  0
   13.6046  -10.7105   -3.0720 H   0  0  0  0  0  0  0  0  0  0  0  0
   13.9932  -12.4639   -3.3296 H   0  0  0  0  0  0  0  0  0  0  0  0
   12.4977  -11.9898   -2.4162 H   0  0  0  0  0  0  0  0  0  0  0  0
   11.0271  -10.3997    1.6531 H   0  0  0  0  0  0  0  0  0  0  0  0
  3  1  1  0  0  0  0
  4  2  1  0  0  0  0
  5  3  1  0  0  0  0
  6  4  2  0  0  0  0
  6  5  1  0  0  0  0
  8  7  1  0  0  0  0
  9  7  1  0  0  0  0
 10  8  1  0  0  0  0
  1  9  1  0  0  0  0
  2 10  1  0  0  0  0
  2  1  1  0  0  0  0
  9 11  1  0  0  0  0
 11 12  1  0  0  0  0
 12 13  1  0  0  0  0
 15 14  1  0  0  0  0
 16 14  2  0  0  0  0
 17 15  1  0  0  0  0
 13 16  1  0  0  0  0
 13 17  2  0  0  0  0
  9 18  1  0  0  0  0
  7 19  1  0  0  0  0
  2 20  1  0  0  0  0
 22 21  2  0  0  0  0
 23 21  1  0  0  0  0
  4 21  1  0  0  0  0
 24  7  1  0  0  0  0
 25  1  1  0  0  0  0
 26  3  1  0  0  0  0
 27  3  1  0  0  0  0
 28  5  1  0  0  0  0
 29  5  1  0  0  0  0
 30  6  1  0  0  0  0
 31  8  1  0  0  0  0
 32  8  1  0  0  0  0
 33 10  1  0  0  0  0
 34 10  1  0  0  0  0
 35 11  1  0  0  0  0
 36 11  1  0  0  0  0
 37 12  1  0  0  0  0
 38 12  1  0  0  0  0
 39 14  1  0  0  0  0
 40 16  1  0  0  0  0
 41 17  1  0  0  0  0
 42 18  1  0  0  0  0
 43 18  1  0  0  0  0
 44 18  1  0  0  0  0
 45 19  1  0  0  0  0
 46 19  1  0  0  0  0
 47 19  1  0  0  0  0
 48 20  1  0  0  0  0
 49 20  1  0  0  0  0
 50 20  1  0  0  0  0
 51 23  1  0  0  0  0
M  END
