
  ACD/Labs08281017303D

 99 99  0  0  0  0  0  0  0  0  1 V2000
   37.6524  -24.4805   -4.1637 C   0  0  0  0  0  0  0  0  0  0  0  0
   38.4606  -23.4188   -4.5363 C   0  0  0  0  0  0  0  0  0  0  0  0
   35.7537  -23.0033   -4.0861 C   0  0  0  0  0  0  0  0  0  0  0  0
   36.5664  -21.9430   -4.4603 C   0  0  0  0  0  0  0  0  0  0  0  0
   36.2985  -24.2702   -3.9395 C   0  0  0  0  0  0  0  0  0  0  0  0
   37.9185  -22.1514   -4.6828 C   0  0  0  0  0  0  0  0  0  0  0  0
   34.3064  -22.8130   -3.8552 C   0  0  0  0  0  0  0  0  0  0  0  0
   33.8204  -21.6985   -3.2828 C   0  0  0  0  0  0  0  0  0  0  0  0
   32.3580  -21.5594   -3.0705 C   0  0  0  0  0  0  0  0  0  0  0  0
   31.7993  -20.3612   -2.7118 O   0  0  0  0  0  0  0  0  0  0  0  0
   30.3853  -20.2534   -2.5220 C   0  0  0  0  0  0  0  0  0  0  0  0
   29.9197  -18.7960   -2.2805 C   0  0  0  0  0  0  0  0  0  0  0  0
   28.3936  -18.7377   -2.0168 C   0  0  0  0  0  0  0  0  0  0  0  0
   27.8888  -17.2912   -1.7876 C   0  0  0  0  0  0  0  0  0  0  0  0
   26.3608  -17.2569   -1.5333 C   0  0  0  0  0  0  0  0  0  0  0  0
   25.8515  -15.8126   -1.3067 C   0  0  0  0  0  0  0  0  0  0  0  0
   24.3352  -15.7829   -0.9978 C   0  0  0  0  0  0  0  0  0  0  0  0
   23.8258  -14.3357   -0.7973 C   0  0  0  0  0  0  0  0  0  0  0  0
   22.3098  -14.3079   -0.4903 C   0  0  0  0  0  0  0  0  0  0  0  0
   21.7958  -12.8628   -0.2835 C   0  0  0  0  0  0  0  0  0  0  0  0
   20.2818  -12.8400    0.0408 C   0  0  0  0  0  0  0  0  0  0  0  0
   19.7605  -11.3957    0.2405 C   0  0  0  0  0  0  0  0  0  0  0  0
   18.2460  -11.3739    0.5611 C   0  0  0  0  0  0  0  0  0  0  0  0
   17.7277   -9.9287    0.7581 C   0  0  0  0  0  0  0  0  0  0  0  0
   16.2167   -9.9049    1.0882 C   0  0  0  0  0  0  0  0  0  0  0  0
   15.6999   -8.4611    1.2834 C   0  0  0  0  0  0  0  0  0  0  0  0
   14.1883   -8.4545    1.5996 C   0  0  0  0  0  0  0  0  0  0  0  0
   13.6659   -7.0180    1.8006 C   0  0  0  0  0  0  0  0  0  0  0  0
   12.1590   -7.0191    2.1186 C   0  0  0  0  0  0  0  0  0  0  0  0
   11.6528   -5.5787    2.3064 C   0  0  0  0  0  0  0  0  0  0  0  0
   10.1478   -5.5769    2.6142 C   0  0  0  0  0  0  0  0  0  0  0  0
    9.6442   -4.1408    2.8100 C   0  0  0  0  0  0  0  0  0  0  0  0
    8.1400   -4.1546    3.1077 C   0  0  0  0  0  0  0  0  0  0  0  0
    7.6427   -2.7178    3.2935 C   0  0  0  0  0  0  0  0  0  0  0  0
    6.1412   -2.7160    3.5932 C   0  0  0  0  0  0  0  0  0  0  0  0
   31.6498  -22.5275   -3.2209 O   0  0  0  0  0  0  0  0  0  0  0  0
   38.1973  -25.7223   -4.0209 O   0  0  0  0  0  0  0  0  0  0  0  0
   37.5924  -26.8867   -4.5688 C   0  0  0  0  0  0  0  0  0  0  0  0
   39.7866  -23.6264   -4.7548 O   0  0  0  0  0  0  0  0  0  0  0  0
   33.6034  -23.6184   -4.1617 H   0  0  0  0  0  0  0  0  0  0  0  0
   34.5136  -20.8875   -2.9717 H   0  0  0  0  0  0  0  0  0  0  0  0
   36.1344  -20.9267   -4.5818 H   0  0  0  0  0  0  0  0  0  0  0  0
   35.6479  -25.1200   -3.6414 H   0  0  0  0  0  0  0  0  0  0  0  0
   38.5690  -21.3009   -4.9791 H   0  0  0  0  0  0  0  0  0  0  0  0
   29.9055  -20.6654   -3.4355 H   0  0  0  0  0  0  0  0  0  0  0  0
   30.1283  -20.8903   -1.6487 H   0  0  0  0  0  0  0  0  0  0  0  0
   30.4569  -18.3846   -1.3994 H   0  0  0  0  0  0  0  0  0  0  0  0
   30.1571  -18.1856   -3.1779 H   0  0  0  0  0  0  0  0  0  0  0  0
   27.8631  -19.1655   -2.8942 H   0  0  0  0  0  0  0  0  0  0  0  0
   28.1641  -19.3426   -1.1136 H   0  0  0  0  0  0  0  0  0  0  0  0
   28.4112  -16.8622   -0.9059 H   0  0  0  0  0  0  0  0  0  0  0  0
   28.1188  -16.6819   -2.6877 H   0  0  0  0  0  0  0  0  0  0  0  0
   25.8391  -17.6884   -2.4142 H   0  0  0  0  0  0  0  0  0  0  0  0
   26.1317  -17.8649   -0.6321 H   0  0  0  0  0  0  0  0  0  0  0  0
   26.4019  -15.3667   -0.4508 H   0  0  0  0  0  0  0  0  0  0  0  0
   26.0439  -15.2149   -2.2232 H   0  0  0  0  0  0  0  0  0  0  0  0
   23.7850  -16.2449   -1.8453 H   0  0  0  0  0  0  0  0  0  0  0  0
   24.1441  -16.3644   -0.0706 H   0  0  0  0  0  0  0  0  0  0  0  0
   24.3746  -13.8737    0.0511 H   0  0  0  0  0  0  0  0  0  0  0  0
   24.0174  -13.7535   -1.7239 H   0  0  0  0  0  0  0  0  0  0  0  0
   21.7617  -14.7671   -1.3407 H   0  0  0  0  0  0  0  0  0  0  0  0
   22.1187  -14.8941    0.4339 H   0  0  0  0  0  0  0  0  0  0  0  0
   22.3525  -12.3990    0.5587 H   0  0  0  0  0  0  0  0  0  0  0  0
   21.9749  -12.2799   -1.2122 H   0  0  0  0  0  0  0  0  0  0  0  0
   19.7267  -13.3100   -0.7990 H   0  0  0  0  0  0  0  0  0  0  0  0
   20.1046  -13.4187    0.9725 H   0  0  0  0  0  0  0  0  0  0  0  0
   20.3135  -10.9264    1.0821 H   0  0  0  0  0  0  0  0  0  0  0  0
   19.9400  -10.8161   -0.6902 H   0  0  0  0  0  0  0  0  0  0  0  0
   17.6925  -11.8441   -0.2796 H   0  0  0  0  0  0  0  0  0  0  0  0
   18.0661  -11.9517    1.4928 H   0  0  0  0  0  0  0  0  0  0  0  0
   18.2862   -9.4560    1.5941 H   0  0  0  0  0  0  0  0  0  0  0  0
   17.9011   -9.3529   -0.1761 H   0  0  0  0  0  0  0  0  0  0  0  0
   15.6575  -10.3779    0.2528 H   0  0  0  0  0  0  0  0  0  0  0  0
   16.0427  -10.4794    2.0231 H   0  0  0  0  0  0  0  0  0  0  0  0
   16.2492   -7.9887    2.1256 H   0  0  0  0  0  0  0  0  0  0  0  0
   15.8787   -7.8816    0.3525 H   0  0  0  0  0  0  0  0  0  0  0  0
   13.6391   -8.9240    0.7557 H   0  0  0  0  0  0  0  0  0  0  0  0
   14.0095   -9.0373    2.5284 H   0  0  0  0  0  0  0  0  0  0  0  0
   14.2144   -6.5461    2.6437 H   0  0  0  0  0  0  0  0  0  0  0  0
   13.8404   -6.4341    0.8716 H   0  0  0  0  0  0  0  0  0  0  0  0
   11.6072   -7.4946    1.2796 H   0  0  0  0  0  0  0  0  0  0  0  0
   11.9814   -7.5942    3.0524 H   0  0  0  0  0  0  0  0  0  0  0  0
   12.1991   -5.1051    3.1500 H   0  0  0  0  0  0  0  0  0  0  0  0
   11.8362   -5.0012    1.3751 H   0  0  0  0  0  0  0  0  0  0  0  0
    9.6002   -6.0442    1.7680 H   0  0  0  0  0  0  0  0  0  0  0  0
    9.9629   -6.1590    3.5422 H   0  0  0  0  0  0  0  0  0  0  0  0
   10.1840   -3.6733    3.6610 H   0  0  0  0  0  0  0  0  0  0  0  0
    9.8315   -3.5547    1.8850 H   0  0  0  0  0  0  0  0  0  0  0  0
    7.5989   -4.6264    2.2598 H   0  0  0  0  0  0  0  0  0  0  0  0
    7.9515   -4.7342    4.0365 H   0  0  0  0  0  0  0  0  0  0  0  0
    8.1868   -2.2471    4.1402 H   0  0  0  0  0  0  0  0  0  0  0  0
    7.8323   -2.1399    2.3638 H   0  0  0  0  0  0  0  0  0  0  0  0
    5.5734   -2.6935    2.6384 H   0  0  0  0  0  0  0  0  0  0  0  0
    5.8760   -3.6341    4.1601 H   0  0  0  0  0  0  0  0  0  0  0  0
    5.8855   -1.8192    4.1973 H   0  0  0  0  0  0  0  0  0  0  0  0
   37.3876  -26.7239   -5.6487 H   0  0  0  0  0  0  0  0  0  0  0  0
   38.2792  -27.7518   -4.4486 H   0  0  0  0  0  0  0  0  0  0  0  0
   36.6383  -27.0926   -4.0380 H   0  0  0  0  0  0  0  0  0  0  0  0
   40.3818  -22.8540   -5.0255 H   0  0  0  0  0  0  0  0  0  0  0  0
  4  3  2  0  0  0  0
  5  3  1  0  0  0  0
  6  4  1  0  0  0  0
  1  5  2  0  0  0  0
  2  6  2  0  0  0  0
  2  1  1  0  0  0  0
  3  7  1  0  0  0  0
  8  7  2  0  0  0  0
  9  8  1  0  0  0  0
 10  9  1  0  0  0  0
 11 10  1  0  0  0  0
 12 11  1  0  0  0  0
 13 12  1  0  0  0  0
 14 13  1  0  0  0  0
 15 14  1  0  0  0  0
 16 15  1  0  0  0  0
 17 16  1  0  0  0  0
 18 17  1  0  0  0  0
 19 18  1  0  0  0  0
 20 19  1  0  0  0  0
 21 20  1  0  0  0  0
 22 21  1  0  0  0  0
 23 22  1  0  0  0  0
 24 23  1  0  0  0  0
 25 24  1  0  0  0  0
 26 25  1  0  0  0  0
 27 26  1  0  0  0  0
 28 27  1  0  0  0  0
 29 28  1  0  0  0  0
 30 29  1  0  0  0  0
 31 30  1  0  0  0  0
 32 31  1  0  0  0  0
 33 32  1  0  0  0  0
 34 33  1  0  0  0  0
 35 34  1  0  0  0  0
  9 36  2  0  0  0  0
  1 37  1  0  0  0  0
 37 38  1  0  0  0  0
  2 39  1  0  0  0  0
 40  7  1  0  0  0  0
 41  8  1  0  0  0  0
 42  4  1  0  0  0  0
 43  5  1  0  0  0  0
 44  6  1  0  0  0  0
 45 11  1  0  0  0  0
 46 11  1  0  0  0  0
 47 12  1  0  0  0  0
 48 12  1  0  0  0  0
 49 13  1  0  0  0  0
 50 13  1  0  0  0  0
 51 14  1  0  0  0  0
 52 14  1  0  0  0  0
 53 15  1  0  0  0  0
 54 15  1  0  0  0  0
 55 16  1  0  0  0  0
 56 16  1  0  0  0  0
 57 17  1  0  0  0  0
 58 17  1  0  0  0  0
 59 18  1  0  0  0  0
 60 18  1  0  0  0  0
 61 19  1  0  0  0  0
 62 19  1  0  0  0  0
 63 20  1  0  0  0  0
 64 20  1  0  0  0  0
 65 21  1  0  0  0  0
 66 21  1  0  0  0  0
 67 22  1  0  0  0  0
 68 22  1  0  0  0  0
 69 23  1  0  0  0  0
 70 23  1  0  0  0  0
 71 24  1  0  0  0  0
 72 24  1  0  0  0  0
 73 25  1  0  0  0  0
 74 25  1  0  0  0  0
 75 26  1  0  0  0  0
 76 26  1  0  0  0  0
 77 27  1  0  0  0  0
 78 27  1  0  0  0  0
 79 28  1  0  0  0  0
 80 28  1  0  0  0  0
 81 29  1  0  0  0  0
 82 29  1  0  0  0  0
 83 30  1  0  0  0  0
 84 30  1  0  0  0  0
 85 31  1  0  0  0  0
 86 31  1  0  0  0  0
 87 32  1  0  0  0  0
 88 32  1  0  0  0  0
 89 33  1  0  0  0  0
 90 33  1  0  0  0  0
 91 34  1  0  0  0  0
 92 34  1  0  0  0  0
 93 35  1  0  0  0  0
 94 35  1  0  0  0  0
 95 35  1  0  0  0  0
 96 38  1  0  0  0  0
 97 38  1  0  0  0  0
 98 38  1  0  0  0  0
 99 39  1  0  0  0  0
M  END
