
  ACD/Labs07101016243D

 86 93  0  0  0  0  0  0  0  0  1 V2000
   15.7418   -5.1823   -2.8176 C   0  0  0  0  0  0  0  0  0  0  0  0
   16.9975   -4.2309   -2.9313 C   0  0  0  0  0  0  0  0  0  0  0  0
   14.4363   -4.3588   -2.8650 C   0  0  0  0  0  0  0  0  0  0  0  0
   16.7279   -2.9800   -2.3138 O   0  0  0  0  0  0  0  0  0  0  0  0
   14.3903   -2.8544   -2.6957 C   0  0  0  0  0  0  0  0  0  0  0  0
   15.7413   -2.2992   -3.0600 C   0  0  0  0  0  0  0  0  0  0  0  0
   16.8186   -6.8317   -1.9472 C   0  0  0  0  0  0  0  0  0  0  0  0
   18.1540   -6.1623   -1.7943 C   0  0  0  0  0  0  0  0  0  0  0  0
   15.8026   -5.9105   -1.5931 O   0  0  0  0  0  0  0  0  0  0  0  0
   18.1377   -4.8173   -2.2787 O   0  0  0  0  0  0  0  0  0  0  0  0
   17.7257   -9.1255   -1.7257 C   0  0  0  0  0  0  0  0  0  0  0  0
   19.1142   -8.4841   -2.0744 C   0  0  0  0  0  0  0  0  0  0  0  0
   16.7937   -8.0725   -1.0524 C   0  0  0  0  0  0  0  0  0  0  0  0
   19.1325   -7.0257   -2.5779 C   0  0  0  0  0  0  0  0  0  0  0  0
   19.1849  -11.1480   -1.2260 C   0  0  0  0  0  0  0  0  0  0  0  0
   20.4699  -10.2978   -1.0919 C   0  0  0  0  0  0  0  0  0  0  0  0
   17.9510  -10.3199   -0.7486 C   0  0  0  0  0  0  0  0  0  0  0  0
   20.1852   -8.7856   -1.0319 C   0  0  0  0  0  0  0  0  0  0  0  0
   18.1190  -13.1975   -0.2380 C   0  0  0  0  0  0  0  0  0  0  0  0
   19.3444  -12.3474   -0.2974 C   0  0  0  0  0  0  0  0  0  0  0  0
   16.9552  -12.4173    0.3920 C   0  0  0  0  0  0  0  0  0  0  0  0
   16.6751  -11.1816   -0.5097 C   0  0  0  0  0  0  0  0  0  0  0  0
   18.5324  -14.4091    0.5848 C   0  0  0  0  0  0  0  0  0  0  0  0
   19.9709  -14.7288    0.1285 C   0  0  0  0  0  0  0  0  0  0  0  0
   20.4168  -13.4177   -0.6382 C   0  0  0  0  0  0  0  0  0  0  0  0
   17.5988  -15.6047    0.3629 C   0  0  0  0  0  0  0  0  0  0  0  0
   16.1201  -15.5027    0.0018 C   0  0  0  0  0  0  0  0  0  0  0  0
   17.9911  -16.8718    0.4922 C   0  0  0  0  0  0  0  0  0  0  0  0
   15.7314  -16.8854   -0.0603 O   0  0  0  0  0  0  0  0  0  0  0  0
   16.8113  -17.6618    0.2321 C   0  0  0  0  0  0  0  0  0  0  0  0
   16.7832  -18.8715    0.2806 O   0  0  0  0  0  0  0  0  0  0  0  0
   19.5949  -11.8490    1.0073 O   0  0  0  0  0  0  0  0  0  0  0  0
   17.0718   -9.6137   -3.0016 C   0  0  0  0  0  0  0  0  0  0  0  0
   16.2013  -10.4509   -2.9531 O   0  0  0  0  0  0  0  0  0  0  0  0
   15.7528   -6.0936   -3.9080 O   0  0  0  0  0  0  0  0  0  0  0  0
   15.7877   -0.8057   -2.7411 C   0  0  0  0  0  0  0  0  0  0  0  0
   17.6536  -13.6311   -1.6496 C   0  0  0  0  0  0  0  0  0  0  0  0
   18.4914  -14.0920    2.0888 C   0  0  0  0  0  0  0  0  0  0  0  0
   13.2686   -4.9798   -3.0807 C   0  0  0  0  0  0  0  0  0  0  0  0
   11.7717   -4.1313   -3.1554 S   0  0  0  0  0  0  0  0  0  0  0  0
   13.1306   -6.4148   -3.2661 N   0  0  0  0  0  0  0  0  0  0  0  0
   10.8411   -5.6707   -3.3714 C   0  0  0  0  0  0  0  0  0  0  0  0
   11.8915   -6.7815   -3.4256 C   0  0  0  0  0  0  0  0  0  0  0  0
   17.2218   -4.0760   -4.0102 H   0  0  0  0  0  0  0  0  0  0  0  0
   15.9268   -2.4470   -4.1488 H   0  0  0  0  0  0  0  0  0  0  0  0
   16.6538   -7.1472   -3.0026 H   0  0  0  0  0  0  0  0  0  0  0  0
   13.6156   -2.4221   -3.3645 H   0  0  0  0  0  0  0  0  0  0  0  0
   14.1535   -2.5996   -1.6406 H   0  0  0  0  0  0  0  0  0  0  0  0
   18.4338   -6.0214   -0.7284 H   0  0  0  0  0  0  0  0  0  0  0  0
   19.4249   -9.0197   -2.9968 H   0  0  0  0  0  0  0  0  0  0  0  0
   17.1670   -7.8134   -0.0386 H   0  0  0  0  0  0  0  0  0  0  0  0
   15.7560   -8.4621   -0.9772 H   0  0  0  0  0  0  0  0  0  0  0  0
   18.8481   -7.0038   -3.6516 H   0  0  0  0  0  0  0  0  0  0  0  0
   20.1546   -6.6075   -2.4564 H   0  0  0  0  0  0  0  0  0  0  0  0
   19.0411  -11.4752   -2.2779 H   0  0  0  0  0  0  0  0  0  0  0  0
   20.9974  -10.5944   -0.1601 H   0  0  0  0  0  0  0  0  0  0  0  0
   21.1229  -10.4990   -1.9679 H   0  0  0  0  0  0  0  0  0  0  0  0
   18.1726   -9.9089    0.2595 H   0  0  0  0  0  0  0  0  0  0  0  0
   21.1082   -8.2121   -1.2635 H   0  0  0  0  0  0  0  0  0  0  0  0
   19.8175   -8.5043   -0.0219 H   0  0  0  0  0  0  0  0  0  0  0  0
   16.0544  -13.0656    0.4440 H   0  0  0  0  0  0  0  0  0  0  0  0
   17.2352  -12.0888    1.4158 H   0  0  0  0  0  0  0  0  0  0  0  0
   15.9040  -10.5502   -0.0188 H   0  0  0  0  0  0  0  0  0  0  0  0
   16.2943  -11.5362   -1.4913 H   0  0  0  0  0  0  0  0  0  0  0  0
   20.6223  -14.9257    1.0067 H   0  0  0  0  0  0  0  0  0  0  0  0
   19.9776  -15.6133   -0.5438 H   0  0  0  0  0  0  0  0  0  0  0  0
   20.4447  -13.5932   -1.7350 H   0  0  0  0  0  0  0  0  0  0  0  0
   21.4165  -13.0793   -0.2912 H   0  0  0  0  0  0  0  0  0  0  0  0
   15.5317  -14.9720    0.7806 H   0  0  0  0  0  0  0  0  0  0  0  0
   15.9594  -15.0129   -0.9824 H   0  0  0  0  0  0  0  0  0  0  0  0
   19.0256  -17.1857    0.7484 H   0  0  0  0  0  0  0  0  0  0  0  0
   20.3761  -12.2046    1.5434 H   0  0  0  0  0  0  0  0  0  0  0  0
   17.2453   -9.3341   -4.0627 H   0  0  0  0  0  0  0  0  0  0  0  0
   16.4958   -6.0530   -4.5939 H   0  0  0  0  0  0  0  0  0  0  0  0
   15.5537   -0.6494   -1.6663 H   0  0  0  0  0  0  0  0  0  0  0  0
   16.8036   -0.4121   -2.9598 H   0  0  0  0  0  0  0  0  0  0  0  0
   15.0395   -0.2708   -3.3646 H   0  0  0  0  0  0  0  0  0  0  0  0
   16.5525  -13.7793   -1.6469 H   0  0  0  0  0  0  0  0  0  0  0  0
   17.9192  -12.8420   -2.3854 H   0  0  0  0  0  0  0  0  0  0  0  0
   18.1545  -14.5830   -1.9282 H   0  0  0  0  0  0  0  0  0  0  0  0
   17.4422  -13.8949    2.3968 H   0  0  0  0  0  0  0  0  0  0  0  0
   18.8886  -14.9581    2.6605 H   0  0  0  0  0  0  0  0  0  0  0  0
   19.1126  -13.1941    2.2947 H   0  0  0  0  0  0  0  0  0  0  0  0
   10.1632   -5.9001   -2.5216 H   0  0  0  0  0  0  0  0  0  0  0  0
   10.2695   -5.7116   -4.3233 H   0  0  0  0  0  0  0  0  0  0  0  0
   11.7522   -7.8724   -3.5834 H   0  0  0  0  0  0  0  0  0  0  0  0
  3  1  1  0  0  0  0
  4  2  1  0  0  0  0
  5  3  1  0  0  0  0
  6  4  1  0  0  0  0
  6  5  1  0  0  0  0
  9  7  1  0  0  0  0
 10  8  1  0  0  0  0
  1  9  1  0  0  0  0
  2 10  1  0  0  0  0
  2  1  1  0  0  0  0
 13 11  1  0  0  0  0
 14 12  1  0  0  0  0
  7 13  1  0  0  0  0
  8 14  1  0  0  0  0
  8  7  1  0  0  0  0
 16 15  1  0  0  0  0
 18 16  1  0  0  0  0
 11 17  1  0  0  0  0
 12 18  1  0  0  0  0
 12 11  1  0  0  0  0
 21 19  1  0  0  0  0
 15 20  1  0  0  0  0
 22 21  1  0  0  0  0
 17 15  1  0  0  0  0
 17 22  1  0  0  0  0
 23 19  1  0  0  0  0
 20 19  1  0  0  0  0
 24 23  1  0  0  0  0
 25 20  1  0  0  0  0
 25 24  1  0  0  0  0
 27 26  1  0  0  0  0
 28 26  2  0  0  0  0
 29 27  1  0  0  0  0
 30 28  1  0  0  0  0
 30 29  1  0  0  0  0
 23 26  1  0  0  0  0
 30 31  2  0  0  0  0
 20 32  1  0  0  0  0
 11 33  1  0  0  0  0
 33 34  2  0  0  0  0
  1 35  1  0  0  0  0
  6 36  1  0  0  0  0
 19 37  1  0  0  0  0
 23 38  1  0  0  0  0
 40 39  1  0  0  0  0
 41 39  1  0  0  0  0
 42 40  1  0  0  0  0
 43 41  2  0  0  0  0
 43 42  1  0  0  0  0
  3 39  2  0  0  0  0
 44  2  1  0  0  0  0
 45  6  1  0  0  0  0
 46  7  1  0  0  0  0
 47  5  1  0  0  0  0
 48  5  1  0  0  0  0
 49  8  1  0  0  0  0
 50 12  1  0  0  0  0
 51 13  1  0  0  0  0
 52 13  1  0  0  0  0
 53 14  1  0  0  0  0
 54 14  1  0  0  0  0
 55 15  1  0  0  0  0
 56 16  1  0  0  0  0
 57 16  1  0  0  0  0
 58 17  1  0  0  0  0
 59 18  1  0  0  0  0
 60 18  1  0  0  0  0
 61 21  1  0  0  0  0
 62 21  1  0  0  0  0
 63 22  1  0  0  0  0
 64 22  1  0  0  0  0
 65 24  1  0  0  0  0
 66 24  1  0  0  0  0
 67 25  1  0  0  0  0
 68 25  1  0  0  0  0
 69 27  1  0  0  0  0
 70 27  1  0  0  0  0
 71 28  1  0  0  0  0
 72 32  1  0  0  0  0
 73 33  1  0  0  0  0
 74 35  1  0  0  0  0
 75 36  1  0  0  0  0
 76 36  1  0  0  0  0
 77 36  1  0  0  0  0
 78 37  1  0  0  0  0
 79 37  1  0  0  0  0
 80 37  1  0  0  0  0
 81 38  1  0  0  0  0
 82 38  1  0  0  0  0
 83 38  1  0  0  0  0
 84 42  1  0  0  0  0
 85 42  1  0  0  0  0
 86 43  1  0  0  0  0
M  END
