
  ACD/Labs08291009503D

 33 35  0  0  0  0  0  0  0  0  1 V2000
   12.4743  -18.5567    1.0812 C   0  0  0  0  0  0  0  0  0  0  0  0
   13.6758  -17.9736    0.7120 C   0  0  0  0  0  0  0  0  0  0  0  0
   12.4515  -19.4850    2.1098 C   0  0  0  0  0  0  0  0  0  0  0  0
   14.8521  -18.3068    1.3630 C   0  0  0  0  0  0  0  0  0  0  0  0
   13.6276  -19.8228    2.7631 C   0  0  0  0  0  0  0  0  0  0  0  0
   14.8259  -19.2345    2.3902 C   0  0  0  0  0  0  0  0  0  0  0  0
   11.2770  -17.3581   -0.6493 C   0  0  0  0  0  0  0  0  0  0  0  0
   12.3982  -16.7512   -1.0771 C   0  0  0  0  0  0  0  0  0  0  0  0
   11.3184  -18.2108    0.4270 O   0  0  0  0  0  0  0  0  0  0  0  0
   13.6634  -16.9962   -0.3750 C   0  0  0  0  0  0  0  0  0  0  0  0
    9.9925  -17.1003   -1.3341 C   0  0  0  0  0  0  0  0  0  0  0  0
    8.8525  -17.7893   -0.9537 C   0  0  0  0  0  0  0  0  0  0  0  0
    9.9194  -16.1648   -2.3561 C   0  0  0  0  0  0  0  0  0  0  0  0
    7.6456  -17.5426   -1.5919 C   0  0  0  0  0  0  0  0  0  0  0  0
    8.7156  -15.9177   -2.9935 C   0  0  0  0  0  0  0  0  0  0  0  0
    7.5779  -16.6079   -2.6121 C   0  0  0  0  0  0  0  0  0  0  0  0
   13.6048  -20.8329    3.8832 C   0  0  0  0  0  0  0  0  0  0  0  0
   16.0242  -17.7211    0.9996 O   0  0  0  0  0  0  0  0  0  0  0  0
   14.6663  -16.3918   -0.6810 O   0  0  0  0  0  0  0  0  0  0  0  0
   12.3577  -15.9083   -2.1446 O   0  0  0  0  0  0  0  0  0  0  0  0
    6.3952  -16.3641   -3.2370 O   0  0  0  0  0  0  0  0  0  0  0  0
   11.4919  -19.9576    2.4100 H   0  0  0  0  0  0  0  0  0  0  0  0
   15.7664  -19.5069    2.9152 H   0  0  0  0  0  0  0  0  0  0  0  0
    8.9062  -18.5400   -0.1364 H   0  0  0  0  0  0  0  0  0  0  0  0
   10.8307  -15.6099   -2.6661 H   0  0  0  0  0  0  0  0  0  0  0  0
    6.7314  -18.0947   -1.2855 H   0  0  0  0  0  0  0  0  0  0  0  0
    8.6627  -15.1664   -3.8102 H   0  0  0  0  0  0  0  0  0  0  0  0
   13.7935  -21.8471    3.4706 H   0  0  0  0  0  0  0  0  0  0  0  0
   14.3939  -20.5818    4.6240 H   0  0  0  0  0  0  0  0  0  0  0  0
   12.6103  -20.8138    4.3784 H   0  0  0  0  0  0  0  0  0  0  0  0
   16.8812  -17.9630    1.4804 H   0  0  0  0  0  0  0  0  0  0  0  0
   13.2024  -15.4473   -2.4576 H   0  0  0  0  0  0  0  0  0  0  0  0
    6.3474  -15.6788   -3.9801 H   0  0  0  0  0  0  0  0  0  0  0  0
  3  1  2  0  0  0  0
  4  2  2  0  0  0  0
  5  3  1  0  0  0  0
  6  4  1  0  0  0  0
  6  5  2  0  0  0  0
  8  7  2  0  0  0  0
  9  7  1  0  0  0  0
 10  8  1  0  0  0  0
  1  9  1  0  0  0  0
  2 10  1  0  0  0  0
  2  1  1  0  0  0  0
 12 11  1  0  0  0  0
 13 11  2  0  0  0  0
 14 12  2  0  0  0  0
 15 13  1  0  0  0  0
 16 14  1  0  0  0  0
 16 15  2  0  0  0  0
  7 11  1  0  0  0  0
  5 17  1  0  0  0  0
  4 18  1  0  0  0  0
 10 19  2  0  0  0  0
  8 20  1  0  0  0  0
 16 21  1  0  0  0  0
 22  3  1  0  0  0  0
 23  6  1  0  0  0  0
 24 12  1  0  0  0  0
 25 13  1  0  0  0  0
 26 14  1  0  0  0  0
 27 15  1  0  0  0  0
 28 17  1  0  0  0  0
 29 17  1  0  0  0  0
 30 17  1  0  0  0  0
 31 18  1  0  0  0  0
 32 20  1  0  0  0  0
 33 21  1  0  0  0  0
M  END
